testcases/case_ACTIVSg25k_OPF1.m
function mpc = case_ACTIVSg25k_OPF1
%CASE_ACTIVSG25K_OPF1

%% MATPOWER Case Format : Version 2
mpc.version = '2';

%%-----  Power Flow Data  -----%%
%% system MVA base
mpc.baseMVA = 100;

%% bus data
%	bus_i	type	Pd	Qd	Gs	Bs	area	Vm	Va	baseKV	zone	Vmax	Vmin
mpc.bus = [
	11001	1	0	0	0	0	11	1	0	138	1	1.05	0.95;
	11002	1	0	0	0	0	11	1	0	69	1	1.05	0.95;
	11003	1	0	0	0	0	11	1	0	18	1	1.05	0.95;
	11004	1	0	0	0	0	11	1	0	1	1	1.05	0.95;
	11005	1	53.22	12.56	0	0	11	1	0	138	1	1.05	0.95;
	11006	1	0	0	0	0	11	1	0	138	1	1.05	0.95;
	11007	1	0	0	0	0	11	1	0	69	1	1.05	0.95;
	11008	1	5.89	1.47	0	0	11	1	0	69	1	1.05	0.95;
	11009	1	12.29	2.77	0	0	11	1	0	69	1	1.05	0.95;
	11010	1	0	0	0	0	11	1	0	69	1	1.05	0.95;
	11011	1	0	0	0	24	11	1	0	69	1	1.05	0.95;
	11012	1	41.52	5.16	0	0	11	1	0	69	1	1.05	0.95;
	11013	1	0	0	0	0	11	1	0	69	1	1.05	0.95;
	11014	1	0	0	0	0	11	1	0	69	1	1.05	0.95;
	11015	1	0	0	0	0	11	1	0	69	1	1.05	0.95;
	11016	1	0	0	0	0	11	1	0	138	1	1.05	0.95;
	11017	1	0	0	0	0	11	1	0	69	1	1.05	0.95;
	11018	1	40.61	10.89	0	0	11	1	0	138	1	1.05	0.95;
	11019	1	0	0	0	0	11	1	0	138	1	1.05	0.95;
	11020	1	43.08	31.77	0	0	11	1	0	138	1	1.05	0.95;
	11021	1	0	0	0	26	11	1	0	69	1	1.05	0.95;
	11022	1	32.58	13.35	0	0	11	1	0	69	1	1.05	0.95;
	11023	1	32.58	11.05	0	0	11	1	0	69	1	1.05	0.95;
	11024	1	0	0	0	0	11	1	0	69	1	1.05	0.95;
	11025	1	0	0	0	0	11	1	0	69	1	1.05	0.95;
	11026	1	42.62	6.8	0	0	11	1	0	69	1	1.05	0.95;
	11027	1	0	0	0	0	11	1	0	138	1	1.05	0.95;
	11028	1	0	0	0	0	11	1	0	69	1	1.05	0.95;
	11029	1	50.01	8.36	0	0	11	1	0	138	1	1.05	0.95;
	11030	1	0	0	0	0	11	1	0	345	1	1.05	0.95;
	11031	1	58.73	8.55	0	0	11	1	0	138	1	1.05	0.95;
	11032	1	0	0	0	0	11	1	0	24	1	1.05	0.95;
	11033	1	0	0	0	0	11	1	0	1	1	1.05	0.95;
	11034	1	0	0	0	0	11	1	0	345	1	1.05	0.95;
	11035	1	0	0	0	0	11	1	0	345	1	1.05	0.95;
	11036	1	22.83	4.5	0	40	11	1	0	69	1	1.05	0.95;
	11037	1	0	0	0	40	11	1	0	69	1	1.05	0.95;
	11038	1	37.56	16.05	0	0	11	1	0	69	1	1.05	0.95;
	11039	1	48.46	5.17	0	0	11	1	0	138	1	1.05	0.95;
	11040	1	23.05	5.37	0	0	11	1	0	69	1	1.05	0.95;
	11041	1	0	0	0	0	11	1	0	69	1	1.05	0.95;
	11042	1	29.46	2.65	0	0	11	1	0	69	1	1.05	0.95;
	11043	1	0.37	0.08	0	0	11	1	0	69	1	1.05	0.95;
	11044	1	0	0	0	0	11	1	0	69	1	1.05	0.95;
	11045	1	14.7	3.14	0	0	11	1	0	69	1	1.05	0.95;
	11046	1	0	0	0	0	11	1	0	69	1	1.05	0.95;
	11047	1	0	0	0	0	11	1	0	138	1	1.05	0.95;
	11048	1	58.78	13.1	0	0	11	1	0	69	1	1.05	0.95;
	11049	1	0	0	0	0	11	1	0	138	1	1.05	0.95;
	11050	1	0	0	0	0	11	1	0	69	1	1.05	0.95;
	11051	1	50.26	13.62	0	0	11	1	0	69	1	1.05	0.95;
	11052	1	39.39	5.71	0	0	11	1	0	138	1	1.05	0.95;
	11053	1	0	0	0	0	11	1	0	138	1	1.05	0.95;
	11054	1	0	0	0	0	11	1	0	69	1	1.05	0.95;
	11055	1	39.17	19.43	0	0	11	1	0	138	1	1.05	0.95;
	11056	1	10.85	1.44	0	0	11	1	0	69	1	1.05	0.95;
	11057	1	0	0	0	21	11	1	0	69	1	1.05	0.95;
	11058	1	20.99	2.31	0	0	11	1	0	69	1	1.05	0.95;
	11059	1	0	0	0	0	11	1	0	69	1	1.05	0.95;
	11060	1	0	0	0	0	11	1	0	69	1	1.05	0.95;
	11061	1	0	0	0	0	11	1	0	345	1	1.05	0.95;
	11062	1	0	0	0	0	11	1	0	138	1	1.05	0.95;
	11063	1	0	0	0	0	11	1	0	69	1	1.05	0.95;
	11064	1	54.54	14.88	0	0	11	1	0	345	1	1.05	0.95;
	11065	1	0	0	0	0	11	1	0	138	1	1.05	0.95;
	11066	1	0	0	0	0	11	1	0	69	1	1.05	0.95;
	11067	1	26.38	11.13	0	0	11	1	0	69	1	1.05	0.95;
	11068	1	33.91	10.1	0	0	11	1	0	69	1	1.05	0.95;
	11069	1	0	0	0	0	11	1	0	69	1	1.05	0.95;
	11070	1	0	0	0	0	11	1	0	69	1	1.05	0.95;
	11071	1	11.72	3.73	0	0	11	1	0	69	1	1.05	0.95;
	11072	1	17.96	1.61	0	0	11	1	0	69	1	1.05	0.95;
	11073	1	0	0	0	0	11	1	0	69	1	1.05	0.95;
	11074	1	0	0	0	0	11	1	0	138	1	1.05	0.95;
	11075	1	56.63	20.34	0	0	11	1	0	138	1	1.05	0.95;
	11076	1	0	0	0	0	11	1	0	69	1	1.05	0.95;
	11077	1	18.77	2.83	0	0	11	1	0	69	1	1.05	0.95;
	11078	1	0	0	0	0	11	1	0	138	1	1.05	0.95;
	11079	1	0	0	0	0	11	1	0	69	1	1.05	0.95;
	11080	1	46.81	12.6	0	0	11	1	0	138	1	1.05	0.95;
	11081	1	0	0	0	0	11	1	0	138	1	1.05	0.95;
	11082	1	0	0	0	0	11	1	0	69	1	1.05	0.95;
	11083	1	27.43	4.42	0	0	11	1	0	69	1	1.05	0.95;
	11084	1	44.74	17.52	0	0	11	1	0	69	1	1.05	0.95;
	11085	1	0	0	0	0	11	1	0	138	1	1.05	0.95;
	11086	1	44.74	17.31	0	0	11	1	0	69	1	1.05	0.95;
	11087	1	0	0	0	0	11	1	0	13.8	1	1.05	0.95;
	11088	1	0	0	0	0	11	1	0	1	1	1.05	0.95;
	11089	1	0	0	0	0	11	1	0	138	1	1.05	0.95;
	11090	1	44.83	11.68	0	0	11	1	0	69	1	1.05	0.95;
	11091	1	0	0	0	422	11	1	0	345	1	1.05	0.95;
	11092	1	0	0	0	0	11	1	0	138	1	1.05	0.95;
	11093	1	0	0	0	0	11	1	0	69	1	1.05	0.95;
	11094	1	51.91	27.85	0	0	11	1	0	138	1	1.05	0.95;
	11095	1	36.04	7.74	0	0	11	1	0	69	1	1.05	0.95;
	11096	1	36.04	2.7	0	0	11	1	0	69	1	1.05	0.95;
	11097	1	37.44	21.43	0	0	11	1	0	69	1	1.05	0.95;
	11098	1	0	0	0	0	11	1	0	69	1	1.05	0.95;
	11099	1	37.44	14.45	0	0	11	1	0	69	1	1.05	0.95;
	11100	1	45.7	13.49	0	0	11	1	0	69	1	1.05	0.95;
	11101	1	0	0	0	0	11	1	0	138	1	1.05	0.95;
	11102	1	45.7	10.14	0	0	11	1	0	138	1	1.05	0.95;
	11103	1	0	0	0	0	11	1	0	138	1	1.05	0.95;
	11104	1	0	0	0	0	11	1	0	69	1	1.05	0.95;
	11105	1	33.39	7.73	0	0	11	1	0	138	1	1.05	0.95;
	11106	1	0	0	0	0	11	1	0	138	1	1.05	0.95;
	11107	1	6.07	1.26	0	0	11	1	0	138	1	1.05	0.95;
	11108	1	33.39	11.4	0	0	11	1	0	69	1	1.05	0.95;
	11109	1	33.63	5.14	0	0	11	1	0	138	1	1.05	0.95;
	11110	1	0	0	0	0	11	1	0	138	1	1.05	0.95;
	11111	1	50.83	18.1	0	0	11	1	0	69	1	1.05	0.95;
	11112	1	0	0	0	0	11	1	0	138	1	1.05	0.95;
	11113	1	0	0	0	0	11	1	0	138	1	1.05	0.95;
	11114	1	0	0	0	0	11	1	0	69	1	1.05	0.95;
	11115	1	50.83	4.52	0	0	11	1	0	138	1	1.05	0.95;
	11116	1	0	0	0	0	11	1	0	138	1	1.05	0.95;
	11117	1	37.99	16.3	0	0	11	1	0	138	1	1.05	0.95;
	11118	1	0	0	0	0	11	1	0	138	1	1.05	0.95;
	11119	1	45.91	30.33	0	0	11	1	0	138	1	1.05	0.95;
	11120	1	35.8	10.43	0	0	11	1	0	69	1	1.05	0.95;
	11121	1	0	0	0	0	11	1	0	69	1	1.05	0.95;
	11122	1	32.15	4.57	0	0	11	1	0	69	1	1.05	0.95;
	11123	1	0	0	0	0	11	1	0	69	1	1.05	0.95;
	11124	1	0	0	0	0	11	1	0	69	1	1.05	0.95;
	11125	1	47.75	8.66	0	0	11	1	0	69	1	1.05	0.95;
	11126	1	0	0	0	0	11	1	0	69	1	1.05	0.95;
	11127	1	7.83	2.04	0	0	11	1	0	69	1	1.05	0.95;
	11128	1	37.21	13.72	0	0	11	1	0	69	1	1.05	0.95;
	11129	1	34.63	12.39	0	0	11	1	0	138	1	1.05	0.95;
	11130	1	0	0	0	0	11	1	0	69	1	1.05	0.95;
	11131	1	14.53	3.05	0	0	11	1	0	69	1	1.05	0.95;
	11132	1	0	0	0	0	11	1	0	69	1	1.05	0.95;
	11133	1	7.65	2.25	0	0	11	1	0	69	1	1.05	0.95;
	11134	1	39.75	5.63	0	0	11	1	0	69	1	1.05	0.95;
	11135	1	0	0	0	0	11	1	0	69	1	1.05	0.95;
	11136	1	0	0	0	0	11	1	0	138	1	1.05	0.95;
	11137	1	0	0	0	0	11	1	0	69	1	1.05	0.95;
	11138	1	0	0	0	0	11	1	0	18	1	1.05	0.95;
	11139	1	0	0	0	0	11	1	0	1	1	1.05	0.95;
	11140	1	39.75	4.83	0	0	11	1	0	138	1	1.05	0.95;
	11141	1	38.43	17.87	0	0	11	1	0	69	1	1.05	0.95;
	11142	1	0	0	0	0	11	1	0	138	1	1.05	0.95;
	11143	1	0	0	0	0	11	1	0	69	1	1.05	0.95;
	11144	1	0	0	0	0	11	1	0	13.2	1	1.05	0.95;
	11145	1	0	0	0	0	11	1	0	1	1	1.05	0.95;
	11146	1	0	0	0	0	11	1	0	138	1	1.05	0.95;
	11147	1	38.43	9.55	0	0	11	1	0	138	1	1.05	0.95;
	11148	1	7.17	1.14	0	0	11	1	0	69	1	1.05	0.95;
	11149	1	48.3	7.99	0	0	11	1	0	138	1	1.05	0.95;
	11150	1	25.95	6.14	0	0	11	1	0	69	1	1.05	0.95;
	11151	1	0	0	0	0	11	1	0	138	1	1.05	0.95;
	11152	1	3.23	1.05	0	0	11	1	0	69	1	1.05	0.95;
	11153	1	36.61	5.93	0	0	11	1	0	138	1	1.05	0.95;
	11154	1	0	0	0	0	11	1	0	69	1	1.05	0.95;
	11155	1	36.61	0.87	0	0	11	1	0	69	1	1.05	0.95;
	11156	1	0	0	0	0	11	1	0	69	1	1.05	0.95;
	11157	1	0	0	0	0	11	1	0	69	1	1.05	0.95;
	11158	1	0	0	0	0	11	1	0	345	1	1.05	0.95;
	11159	1	0	0	0	0	11	1	0	138	1	1.05	0.95;
	11160	1	0	0	0	0	11	1	0	69	1	1.05	0.95;
	11161	1	44.36	11.49	0	0	11	1	0	138	1	1.05	0.95;
	11162	1	0	0	0	0	11	1	0	138	1	1.05	0.95;
	11163	1	6.33	0.74	0	0	11	1	0	69	1	1.05	0.95;
	11164	1	34.11	5.36	0	0	11	1	0	138	1	1.05	0.95;
	11165	1	0	0	0	0	11	1	0	69	1	1.05	0.95;
	11166	1	42.42	16.76	0	0	11	1	0	69	1	1.05	0.95;
	11167	1	0	0	0	0	11	1	0	69	1	1.05	0.95;
	11168	1	0	0	0	0	11	1	0	138	1	1.05	0.95;
	11169	1	0	0	0	0	11	1	0	69	1	1.05	0.95;
	11170	1	0	0	0	0	11	1	0	20	1	1.05	0.95;
	11171	1	0	0	0	0	11	1	0	1	1	1.05	0.95;
	11172	1	42.42	13.93	0	0	11	1	0	138	1	1.05	0.95;
	11173	1	55.7	38.61	0	0	11	1	0	138	1	1.05	0.95;
	11174	1	0	0	0	0	11	1	0	345	1	1.05	0.95;
	11175	1	0	0	0	0	11	1	0	138	1	1.05	0.95;
	11176	1	0	0	0	0	11	1	0	69	1	1.05	0.95;
	11177	1	55.7	1.72	0	0	11	1	0	345	1	1.05	0.95;
	11178	1	0	0	0	0	11	1	0	345	1	1.05	0.95;
	11179	1	12.51	3.13	0	0	11	1	0	69	1	1.05	0.95;
	11180	1	30.37	4.37	0	0	11	1	0	138	1	1.05	0.95;
	11181	1	0	0	0	0	11	1	0	138	1	1.05	0.95;
	11182	1	0	0	0	0	11	1	0	138	1	1.05	0.95;
	11183	1	20.58	10.68	0	0	11	1	0	69	1	1.05	0.95;
	11184	1	0	0	0	0	11	1	0	69	1	1.05	0.95;
	11185	1	0	0	0	0	11	1	0	69	1	1.05	0.95;
	11186	1	40	8.86	0	0	11	1	0	69	1	1.05	0.95;
	11187	1	0	0	0	0	11	1	0	69	1	1.05	0.95;
	11188	1	18.7	9.54	0	0	11	1	0	69	1	1.05	0.95;
	11189	1	39.23	9.15	0	0	11	1	0	69	1	1.05	0.95;
	11190	1	0	0	0	0	11	1	0	69	1	1.05	0.95;
	11191	1	0	0	0	0	11	1	0	138	1	1.05	0.95;
	11192	1	21.45	4.71	0	0	11	1	0	138	1	1.05	0.95;
	11193	1	0	0	0	0	11	1	0	69	1	1.05	0.95;
	11194	1	32.21	11.63	0	0	11	1	0	69	1	1.05	0.95;
	11195	1	0	0	0	0	11	1	0	69	1	1.05	0.95;
	11196	1	22.55	5.68	0	0	11	1	0	69	1	1.05	0.95;
	11197	1	0	0	0	0	11	1	0	69	1	1.05	0.95;
	11198	1	0	0	0	0	11	1	0	138	1	1.05	0.95;
	11199	1	0	0	0	0	11	1	0	69	1	1.05	0.95;
	11200	1	0	0	0	0	11	1	0	18	1	1.05	0.95;
...
];

%% generator data
%	bus	Pg	Qg	Qmax	Qmin	Vg	mBase	status	Pmax	Pmin	Pc1	Pc2	Qc1min	Qc1max	Qc2min	Qc2max	ramp_agc	ramp_10	ramp_30	ramp_q	apf
mpc.gen = [
	11294	1.6	0.81	0.81	-0.18	1.0269	100	1	1.6	0.6	0	0	0	0	0	0	0	0	0	0	0;
	11297	0	0	1.35	-0.35	1.04	100	0	2.9	1.25	0	0	0	0	0	0	0	0	0	0	0;
	11299	1.03	0.52	0.52	-0.11	1.04	100	1	1.03	0.19	0	0	0	0	0	0	0	0	0	0	0;
	11299	1.03	0.52	0.52	-0.11	1.04	100	1	1.03	0.18	0	0	0	0	0	0	0	0	0	0	0;
	11299	1.03	0.52	0.52	-0.11	1.04	100	1	1.03	0.3	0	0	0	0	0	0	0	0	0	0	0;
	11299	1.03	0.52	0.52	-0.11	1.04	100	1	1.03	0.41	0	0	0	0	0	0	0	0	0	0	0;
	11299	1.1	0.56	0.56	-0.12	1.04	100	1	1.1	0.54	0	0	0	0	0	0	0	0	0	0	0;
	11299	1.1	0.56	0.56	-0.12	1.04	100	1	1.1	0.29	0	0	0	0	0	0	0	0	0	0	0;
	11299	1.1	0.56	0.56	-0.12	1.04	100	1	1.1	0.3	0	0	0	0	0	0	0	0	0	0	0;
	11302	0	0	0.5	-0.06	1.0344	100	0	1.3	0.58	0	0	0	0	0	0	0	0	0	0	0;
	11303	1.3	-0.06	0.5	-0.06	1.0343	100	1	1.3	0.42	0	0	0	0	0	0	0	0	0	0	0;
	11303	1.3	-0.06	0.5	-0.06	1.0343	100	1	1.3	0.23	0	0	0	0	0	0	0	0	0	0	0;
	11304	1.3	-0.06	0.5	-0.06	1.0343	100	1	1.3	0.42	0	0	0	0	0	0	0	0	0	0	0;
	11309	0	0	0.84	-0.22	1.0105	100	0	1.8	0.58	0	0	0	0	0	0	0	0	0	0	0;
	11309	0	0	0.84	-0.22	1.0105	100	0	1.8	0.56	0	0	0	0	0	0	0	0	0	0	0;
	11310	0	0	0.84	-0.22	1.0105	100	0	1.8	0.65	0	0	0	0	0	0	0	0	0	0	0;
	11311	0	0	0.84	-0.22	1.0105	100	0	1.8	0.58	0	0	0	0	0	0	0	0	0	0	0;
	11315	50.6	25.76	25.76	-5.62	1.006	100	1	50.6	16.87	0	0	0	0	0	0	0	0	0	0	0;
	11316	50.6	25.76	25.76	-5.62	1.007	100	1	50.6	20.09	0	0	0	0	0	0	0	0	0	0	0;
	11320	3.6	1.38	1.38	-0.18	1.0582	100	1	3.6	1.64	0	0	0	0	0	0	0	0	0	0	0;
	11320	3.6	1.38	1.38	-0.18	1.0582	100	1	3.6	1.38	0	0	0	0	0	0	0	0	0	0	0;
	11321	3.6	1.38	1.38	-0.18	1.0564	100	1	3.6	1.61	0	0	0	0	0	0	0	0	0	0	0;
	11321	0	0	1.38	-0.18	1.0564	100	0	3.6	1.08	0	0	0	0	0	0	0	0	0	0	0;
	11322	3.6	1.38	1.38	-0.18	1.059	100	1	3.6	1.63	0	0	0	0	0	0	0	0	0	0	0;
	11325	5.5	2.8	2.8	-0.61	1.0195	100	1	5.5	2.49	0	0	0	0	0	0	0	0	0	0	0;
	11326	5.5	2.8	2.8	-0.61	1.0195	100	1	5.5	1.41	0	0	0	0	0	0	0	0	0	0	0;
	11330	0	0	0.77	-0.1	1.0323	100	0	2	0.22	0	0	0	0	0	0	0	0	0	0	0;
	11332	0	0	0.84	-0.22	1.04	100	0	1.8	0.41	0	0	0	0	0	0	0	0	0	0	0;
	11332	0	0	0.84	-0.22	1.04	100	0	1.8	0.29	0	0	0	0	0	0	0	0	0	0	0;
	11332	0	0	0.84	-0.22	1.04	100	0	1.8	0.19	0	0	0	0	0	0	0	0	0	0	0;
	11333	4.3	-0.21	1.65	-0.21	1.045	100	1	4.3	2.01	0	0	0	0	0	0	0	0	0	0	0;
	11334	1.43	1.35	1.35	-0.35	1.039	100	1	2.9	1.43	0	0	0	0	0	0	0	0	0	0	0;
	11334	0	0	1.35	-0.35	1.039	100	0	2.9	1.19	0	0	0	0	0	0	0	0	0	0	0;
	11336	1.1	0.42	0.42	-0.05	1.0372	100	1	1.1	0.38	0	0	0	0	0	0	0	0	0	0	0;
	11339	15	-0.74	5.76	-0.74	1.0305	100	1	15	3.88	0	0	0	0	0	0	0	0	0	0	0;
	11340	15	-0.74	5.76	-0.74	1.0177	100	1	15	2.94	0	0	0	0	0	0	0	0	0	0	0;
	11340	15	-0.74	5.76	-0.74	1.0177	100	1	15	2.83	0	0	0	0	0	0	0	0	0	0	0;
	11341	0	0	5.76	-0.74	1.0499	100	0	15	6.36	0	0	0	0	0	0	0	0	0	0	0;
	11348	1	0.38	0.38	-0.05	1.0396	100	1	1	0.35	0	0	0	0	0	0	0	0	0	0	0;
	11355	0.6	0.23	0.23	-0.03	1.0171	100	1	0.6	0.19	0	0	0	0	0	0	0	0	0	0	0;
	11356	0.6	0.23	0.23	-0.03	1.0184	100	1	0.6	0.19	0	0	0	0	0	0	0	0	0	0	0;
	11356	0.6	0.23	0.23	-0.03	1.0184	100	1	0.6	0.22	0	0	0	0	0	0	0	0	0	0	0;
	11357	0.6	0.23	0.23	-0.03	1.0187	100	1	0.6	0.2	0	0	0	0	0	0	0	0	0	0	0;
	11362	0.7	0.27	0.27	-0.03	1.0625	100	1	0.7	0.3	0	0	0	0	0	0	0	0	0	0	0;
	11363	0.7	0.27	0.27	-0.03	1.0633	100	1	0.7	0.1	0	0	0	0	0	0	0	0	0	0	0;
	11365	0	0	0.61	-0.16	1.04	100	0	1.3	0.61	0	0	0	0	0	0	0	0	0	0	0;
	11366	0	0	0.61	-0.16	1.0166	100	0	1.3	0.58	0	0	0	0	0	0	0	0	0	0	0;
	11367	0	0	0.61	-0.16	1.0166	100	0	1.3	0.36	0	0	0	0	0	0	0	0	0	0	0;
	11372	193.5	14.41	74.3	-9.48	1.0439	100	1	193.5	39.82	0	0	0	0	0	0	0	0	0	0	0;
	11373	0	0	74.3	-9.48	1.04	100	0	193.5	31.96	0	0	0	0	0	0	0	0	0	0	0;
	11374	193.5	14.41	74.3	-9.48	1.0439	100	1	193.5	31.34	0	0	0	0	0	0	0	0	0	0	0;
	11375	193.5	14.41	74.3	-9.48	1.0449	100	1	193.5	40.92	0	0	0	0	0	0	0	0	0	0	0;
	11380	888.9	68.93	327.12	-72.89	1.0468	100	1	888.9	358.44	0	0	0	0	0	0	0	0	0	0	0;
	11381	888.9	68.93	327.12	-72.89	1.0465	100	1	888.9	250.85	0	0	0	0	0	0	0	0	0	0	0;
	11382	888.9	68.93	327.12	-72.89	1.0464	100	1	888.9	196.87	0	0	0	0	0	0	0	0	0	0	0;
	11389	197	-15.11	100.27	-21.87	1.0355	100	1	197	89.23	0	0	0	0	0	0	0	0	0	0	0;
	11390	197	-15.11	100.27	-21.87	1.035	100	1	197	84.26	0	0	0	0	0	0	0	0	0	0	0;
	11391	197	-15.11	100.27	-21.87	1.0361	100	1	197	82.38	0	0	0	0	0	0	0	0	0	0	0;
	11392	197	-15.11	100.27	-21.87	1.0353	100	1	197	26.04	0	0	0	0	0	0	0	0	0	0	0;
	11393	197	-15.11	100.27	-21.87	1.0368	100	1	197	33.65	0	0	0	0	0	0	0	0	0	0	0;
	11396	0	0	0.64	-0.08	1.038	100	0	1.68	0.36	0	0	0	0	0	0	0	0	0	0	0;
	11396	0	0	0.64	-0.08	1.038	100	0	1.68	0.44	0	0	0	0	0	0	0	0	0	0	0;
	11396	1.68	-0.08	0.64	-0.08	1.038	100	1	1.68	0.56	0	0	0	0	0	0	0	0	0	0	0;
	11396	1.68	-0.08	0.64	-0.08	1.038	100	1	1.68	0.29	0	0	0	0	0	0	0	0	0	0	0;
	11397	3.3	1.27	1.27	-0.16	1.0455	100	1	3.3	0.44	0	0	0	0	0	0	0	0	0	0	0;
	11401	3.1	0.45	1.19	-0.15	1.0208	100	1	3.1	0.83	0	0	0	0	0	0	0	0	0	0	0;
	11402	0	0	1.19	-0.15	1.0196	100	0	3.1	0.98	0	0	0	0	0	0	0	0	0	0	0;
	11406	0	0	0.77	-0.2	1.027	100	0	1.65	0.66	0	0	0	0	0	0	0	0	0	0	0;
	11406	1.65	0.77	0.77	-0.2	1.027	100	1	1.65	0.19	0	0	0	0	0	0	0	0	0	0	0;
	11407	0	0	0.23	-0.06	1.0276	100	0	0.5	0.24	0	0	0	0	0	0	0	0	0	0	0;
	11407	0.5	0.23	0.23	-0.06	1.0276	100	1	0.5	0.21	0	0	0	0	0	0	0	0	0	0	0;
	11412	3	-0.15	1.15	-0.15	1.043	100	1	3	1.35	0	0	0	0	0	0	0	0	0	0	0;
	11412	3	-0.15	1.15	-0.15	1.043	100	1	3	0.68	0	0	0	0	0	0	0	0	0	0	0;
	11412	3	-0.15	1.15	-0.15	1.043	100	1	3	0.34	0	0	0	0	0	0	0	0	0	0	0;
	11412	3	-0.15	1.15	-0.15	1.043	100	1	3	0.92	0	0	0	0	0	0	0	0	0	0	0;
	11412	0	0	1.15	-0.15	1.043	100	0	3	1.33	0	0	0	0	0	0	0	0	0	0	0;
	11412	0	0	1.15	-0.15	1.043	100	0	3	0.73	0	0	0	0	0	0	0	0	0	0	0;
	11415	0	0	1.35	-0.35	1.0051	100	0	2.9	1.16	0	0	0	0	0	0	0	0	0	0	0;
	11417	2.9	1.35	1.35	-0.35	1.04	100	1	2.9	1.35	0	0	0	0	0	0	0	0	0	0	0;
	11421	175	89.07	89.07	-19.43	1.0091	100	1	175	83.09	0	0	0	0	0	0	0	0	0	0	0;
	11422	54	27.49	27.49	-5.99	1.0073	100	1	54	15.82	0	0	0	0	0	0	0	0	0	0	0;
	11423	54	27.49	27.49	-5.99	1.0116	100	1	54	26.7	0	0	0	0	0	0	0	0	0	0	0;
	11433	1205.1	207.63	443.48	-98.82	1.0524	100	1	1205.1	277.37	0	0	0	0	0	0	0	0	0	0	0;
	11434	1205.1	207.63	443.48	-98.82	1.0542	100	1	1205.1	391.05	0	0	0	0	0	0	0	0	0	0	0;
	11440	173.33	17.32	88.23	-19.24	0.9859	100	1	173.33	65.27	0	0	0	0	0	0	0	0	0	0	0;
	11441	173.33	17.32	88.23	-19.24	0.9847	100	1	173.33	65.22	0	0	0	0	0	0	0	0	0	0	0;
	11442	173.33	17.32	88.23	-19.24	0.9874	100	1	173.33	80.1	0	0	0	0	0	0	0	0	0	0	0;
	11443	116.4	17.32	59.25	-12.92	0.9873	100	1	116.4	17.44	0	0	0	0	0	0	0	0	0	0	0;
	11444	116.4	17.32	59.25	-12.92	0.9871	100	1	116.4	32.21	0	0	0	0	0	0	0	0	0	0	0;
	11445	116.4	17.32	59.25	-12.92	0.9867	100	1	116.4	18.13	0	0	0	0	0	0	0	0	0	0	0;
	11446	116.4	17.32	59.25	-12.92	0.9881	100	1	116.4	45.3	0	0	0	0	0	0	0	0	0	0	0;
	11447	116.4	17.32	59.25	-12.92	0.9874	100	1	116.4	28.67	0	0	0	0	0	0	0	0	0	0	0;
	11452	5	1.92	1.92	-0.25	1.0016	100	1	5	1.65	0	0	0	0	0	0	0	0	0	0	0;
	11453	5	1.92	1.92	-0.25	0.9999	100	1	5	2.04	0	0	0	0	0	0	0	0	0	0	0;
	11453	5	1.92	1.92	-0.25	0.9999	100	1	5	2.16	0	0	0	0	0	0	0	0	0	0	0;
	11457	1.6	0.81	0.81	-0.18	1.0138	100	1	1.6	0.52	0	0	0	0	0	0	0	0	0	0	0;
	11457	1.6	0.81	0.81	-0.18	1.0138	100	1	1.6	0.72	0	0	0	0	0	0	0	0	0	0	0;
	11459	78.8	1.42	30.26	-3.86	1.036	100	1	78.8	21.14	0	0	0	0	0	0	0	0	0	0	0;
	11459	78.8	1.42	30.26	-3.86	1.036	100	1	78.8	33.13	0	0	0	0	0	0	0	0	0	0	0;
	11467	0	0	124.42	-15.88	1.041	100	0	324	38.46	0	0	0	0	0	0	0	0	0	0	0;
	11468	324	47.33	124.42	-15.88	1.0485	100	1	324	79.56	0	0	0	0	0	0	0	0	0	0	0;
	11469	324	47.33	124.42	-15.88	1.0522	100	1	324	128.82	0	0	0	0	0	0	0	0	0	0	0;
	11470	324	47.33	124.42	-15.88	1.0486	100	1	324	83.92	0	0	0	0	0	0	0	0	0	0	0;
	11472	0.62	0.93	0.93	-0.24	1.0135	100	1	2	0.62	0	0	0	0	0	0	0	0	0	0	0;
	11472	0	0	0.93	-0.24	1.0135	100	0	2	0.61	0	0	0	0	0	0	0	0	0	0	0;
	11473	0	0	0.93	-0.24	0.9976	100	0	2	0.3	0	0	0	0	0	0	0	0	0	0	0;
	11473	0	0	0.93	-0.24	0.9976	100	0	2	0.62	0	0	0	0	0	0	0	0	0	0	0;
	11474	0	0	0.93	-0.24	0.9976	100	0	2	0.62	0	0	0	0	0	0	0	0	0	0	0;
	11479	1	-0.05	0.38	-0.05	1.0419	100	1	1	0.27	0	0	0	0	0	0	0	0	0	0	0;
	11480	0	0	0.38	-0.05	1.029	100	0	1	0.19	0	0	0	0	0	0	0	0	0	0	0;
	11481	1	-0.05	0.38	-0.05	1.0421	100	1	1	0.22	0	0	0	0	0	0	0	0	0	0	0;
	11481	1	-0.05	0.38	-0.05	1.0421	100	1	1	0.25	0	0	0	0	0	0	0	0	0	0	0;
	11485	5	2.55	2.55	-0.55	1.04	100	1	5	1.95	0	0	0	0	0	0	0	0	0	0	0;
	11485	5	2.55	2.55	-0.55	1.04	100	1	5	1.07	0	0	0	0	0	0	0	0	0	0	0;
	11487	1.12	1.35	1.35	-0.35	1.041	100	1	2.9	1.12	0	0	0	0	0	0	0	0	0	0	0;
	11491	133.2	52.69	67.8	-14.79	1.0051	100	1	133.2	53.14	0	0	0	0	0	0	0	0	0	0	0;
	11492	133.2	52.69	67.8	-14.79	1.007	100	1	133.2	25.86	0	0	0	0	0	0	0	0	0	0	0;
	11493	133.2	52.69	67.8	-14.79	1.0045	100	1	133.2	21.19	0	0	0	0	0	0	0	0	0	0	0;
	11494	133.2	52.69	67.8	-14.79	1.0056	100	1	133.2	58.12	0	0	0	0	0	0	0	0	0	0	0;
	11495	133.2	52.69	67.8	-14.79	1.0035	100	1	133.2	37.14	0	0	0	0	0	0	0	0	0	0	0;
	11496	133.2	52.69	67.8	-14.79	1.0047	100	1	133.2	40.72	0	0	0	0	0	0	0	0	0	0	0;
	11499	0.6	0.23	0.23	-0.03	1.045	100	1	0.6	0.16	0	0	0	0	0	0	0	0	0	0	0;
	11499	0.6	0.23	0.23	-0.03	1.045	100	1	0.6	0.09	0	0	0	0	0	0	0	0	0	0	0;
	14176	46.33	23.58	23.58	-5.14	1.0069	100	1	46.33	20.91	0	0	0	0	0	0	0	0	0	0	0;
	14177	46.33	23.58	23.58	-5.14	1.0052	100	1	46.33	17.51	0	0	0	0	0	0	0	0	0	0	0;
	14177	46.33	23.58	23.58	-5.14	1.0052	100	1	46.33	15.03	0	0	0	0	0	0	0	0	0	0	0;
	14179	14.4	7.33	7.33	-1.6	1.0425	100	1	14.4	3.8	0	0	0	0	0	0	0	0	0	0	0;
	14179	14.4	7.33	7.33	-1.6	1.0425	100	1	14.4	6.41	0	0	0	0	0	0	0	0	0	0	0;
	14182	1.8	-0.2	0.92	-0.2	1.0268	100	1	1.8	0.59	0	0	0	0	0	0	0	0	0	0	0;
	14183	0	0	0.92	-0.2	1.0269	100	0	1.8	0.42	0	0	0	0	0	0	0	0	0	0	0;
	14184	0	0	0.92	-0.2	1.0269	100	0	1.8	0.22	0	0	0	0	0	0	0	0	0	0	0;
	14188	0	0	0.7	-0.18	1.04	100	0	1.5	0.71	0	0	0	0	0	0	0	0	0	0	0;
	14188	0	0	0.7	-0.18	1.04	100	0	1.5	0.45	0	0	0	0	0	0	0	0	0	0	0;
	14188	0	0	0.7	-0.18	1.04	100	0	1.5	0.46	0	0	0	0	0	0	0	0	0	0	0;
	14188	0	0	0.7	-0.18	1.04	100	0	1.5	0.19	0	0	0	0	0	0	0	0	0	0	0;
	14190	0	0	24.7	-6.47	1.04	100	0	53	22.65	0	0	0	0	0	0	0	0	0	0	0;
	14190	0	0	24.7	-6.47	1.04	100	0	53	8.74	0	0	0	0	0	0	0	0	0	0	0;
	14190	0	0	24.7	-6.47	1.04	100	0	53	13.82	0	0	0	0	0	0	0	0	0	0	0;
	14190	0	0	24.7	-6.47	1.04	100	0	53	13.2	0	0	0	0	0	0	0	0	0	0	0;
	14199	11.4	0	0	0	1.0343	100	1	11.4	4.81	0	0	0	0	0	0	0	0	0	0	0;
	14202	0	0	0	0	1.0277	100	0	1.9	0.68	0	0	0	0	0	0	0	0	0	0	0;
	14202	1.8	0	0	0	1.0277	100	1	1.8	0.54	0	0	0	0	0	0	0	0	0	0	0;
	14206	1	0	0	0	1.0213	100	1	1	0.22	0	0	0	0	0	0	0	0	0	0	0;
	14207	1.3	0	0	0	1.0213	100	1	1.3	0.5	0	0	0	0	0	0	0	0	0	0	0;
	14209	0	0	0	0	1.0213	100	0	4.1	1.17	0	0	0	0	0	0	0	0	0	0	0;
	14212	1.5	0.76	0.76	-0.17	1.04	100	1	1.5	0.24	0	0	0	0	0	0	0	0	0	0	0;
	14212	0	0	0.76	-0.17	1.04	100	0	1.5	0.6	0	0	0	0	0	0	0	0	0	0	0;
	14212	0	0	0.76	-0.17	1.04	100	0	1.5	0.7	0	0	0	0	0	0	0	0	0	0	0;
	14213	1.5	0.76	0.76	-0.17	1.0547	100	1	1.5	0.51	0	0	0	0	0	0	0	0	0	0	0;
	14214	1.5	0.76	0.76	-0.17	1.0547	100	1	1.5	0.19	0	0	0	0	0	0	0	0	0	0	0;
	14216	68.2	-7.57	34.71	-7.57	1.0365	100	1	68.2	29.15	0	0	0	0	0	0	0	0	0	0	0;
	14219	0	0	0.93	-0.24	1.04	100	0	2	0.59	0	0	0	0	0	0	0	0	0	0	0;
	14219	0	0	0.93	-0.24	1.04	100	0	2	0.2	0	0	0	0	0	0	0	0	0	0	0;
	14219	0	0	0.93	-0.24	1.04	100	0	2	0.5	0	0	0	0	0	0	0	0	0	0	0;
	14221	0	0	0.25	-0.06	1.04	100	0	0.5	0.14	0	0	0	0	0	0	0	0	0	0	0;
	14221	0	0	0.25	-0.06	1.04	100	0	0.5	0.13	0	0	0	0	0	0	0	0	0	0	0;
	14221	14	7.13	7.13	-1.55	1.04	100	1	14	6.59	0	0	0	0	0	0	0	0	0	0	0;
	14222	0.5	0.25	0.25	-0.06	1.0354	100	1	0.5	0.11	0	0	0	0	0	0	0	0	0	0	0;
	14223	0.5	0.25	0.25	-0.06	1.0354	100	1	0.5	0.12	0	0	0	0	0	0	0	0	0	0	0;
	14228	5.3	0.92	2.7	-0.59	1.0416	100	1	5.3	1.78	0	0	0	0	0	0	0	0	0	0	0;
	14228	5.3	0.92	2.7	-0.59	1.0416	100	1	5.3	1.77	0	0	0	0	0	0	0	0	0	0	0;
	14232	17.5	8.91	8.91	-1.94	1.0649	100	1	17.5	5.94	0	0	0	0	0	0	0	0	0	0	0;
	14233	17.5	8.91	8.91	-1.94	1.0649	100	1	17.5	2.16	0	0	0	0	0	0	0	0	0	0	0;
	14239	100.83	20.16	51.32	-11.19	1.0438	100	1	100.83	44.87	0	0	0	0	0	0	0	0	0	0	0;
	14240	100.83	20.16	51.32	-11.19	1.0428	100	1	100.83	40.31	0	0	0	0	0	0	0	0	0	0	0;
	14241	100.83	20.16	51.32	-11.19	1.042	100	1	100.83	45.93	0	0	0	0	0	0	0	0	0	0	0;
	14242	100.83	20.16	51.32	-11.19	1.0442	100	1	100.83	13.81	0	0	0	0	0	0	0	0	0	0	0;
	14243	100.83	20.16	51.32	-11.19	1.0429	100	1	100.83	44.78	0	0	0	0	0	0	0	0	0	0	0;
	14244	100.83	20.16	51.32	-11.19	1.0429	100	1	100.83	21.9	0	0	0	0	0	0	0	0	0	0	0;
	14249	18.5	8.62	8.62	-2.26	1.042	100	1	18.5	5.74	0	0	0	0	0	0	0	0	0	0	0;
	14251	2.4	0.75	1.22	-0.27	1.041	100	1	2.4	0.46	0	0	0	0	0	0	0	0	0	0	0;
	14251	2.4	0.75	1.22	-0.27	1.041	100	1	2.4	0.94	0	0	0	0	0	0	0	0	0	0	0;
	14251	2.4	0.75	1.22	-0.27	1.041	100	1	2.4	0.29	0	0	0	0	0	0	0	0	0	0	0;
	14251	2.4	0.75	1.22	-0.27	1.041	100	1	2.4	1.07	0	0	0	0	0	0	0	0	0	0	0;
	14251	2.4	0.75	1.22	-0.27	1.041	100	1	2.4	0.92	0	0	0	0	0	0	0	0	0	0	0;
	14251	2.4	0.75	1.22	-0.27	1.041	100	1	2.4	0.6	0	0	0	0	0	0	0	0	0	0	0;
	14253	3	0	0	0	1.0316	100	1	3	1.08	0	0	0	0	0	0	0	0	0	0	0;
	14253	3	0	0	0	1.0316	100	1	3	1.09	0	0	0	0	0	0	0	0	0	0	0;
	14258	191.5	29.43	97.47	-21.26	1.0608	100	1	191.5	50.83	0	0	0	0	0	0	0	0	0	0	0;
	14259	191.5	29.43	97.47	-21.26	1.0611	100	1	191.5	94.76	0	0	0	0	0	0	0	0	0	0	0;
	14263	0	0	0	0	1.04	100	0	1.1	0.36	0	0	0	0	0	0	0	0	0	0	0;
	14263	0	0	0	0	1.04	100	0	1.4	0.27	0	0	0	0	0	0	0	0	0	0	0;
	14263	1.4	0	0	0	1.04	100	1	1.4	0.19	0	0	0	0	0	0	0	0	0	0	0;
	14264	1.2	0	0	0	1.04	100	1	1.2	0.35	0	0	0	0	0	0	0	0	0	0	0;
	14264	4	0	0	0	1.04	100	1	4	1.97	0	0	0	0	0	0	0	0	0	0	0;
	14268	37.14	18.9	18.9	-4.12	1.0444	100	1	37.14	14.47	0	0	0	0	0	0	0	0	0	0	0;
	14269	37.14	18.9	18.9	-4.12	1.0444	100	1	37.14	18.12	0	0	0	0	0	0	0	0	0	0	0;
	14271	60.5	30.79	30.79	-6.72	1.0477	100	1	60.5	15.4	0	0	0	0	0	0	0	0	0	0	0;
	14272	60.5	30.79	30.79	-6.72	1.0479	100	1	60.5	8.36	0	0	0	0	0	0	0	0	0	0	0;
	14273	60.5	30.79	30.79	-6.72	1.0461	100	1	60.5	17.58	0	0	0	0	0	0	0	0	0	0	0;
	14274	60.5	30.79	30.79	-6.72	1.0455	100	1	60.5	8.23	0	0	0	0	0	0	0	0	0	0	0;
	14275	37.14	18.9	18.9	-4.12	1.0482	100	1	37.14	13.94	0	0	0	0	0	0	0	0	0	0	0;
	14275	37.14	18.9	18.9	-4.12	1.0482	100	1	37.14	5.74	0	0	0	0	0	0	0	0	0	0	0;
	14276	37.14	18.9	18.9	-4.12	1.0457	100	1	37.14	4.39	0	0	0	0	0	0	0	0	0	0	0;
	14280	6	3.05	3.05	-0.67	1.04	100	1	6	0.64	0	0	0	0	0	0	0	0	0	0	0;
	14283	5.1	2.6	2.6	-0.57	1.04	100	1	5.1	1.02	0	0	0	0	0	0	0	0	0	0	0;
	14283	5.1	2.6	2.6	-0.57	1.04	100	1	5.1	1.44	0	0	0	0	0	0	0	0	0	0	0;
	14284	2.4	1.22	1.22	-0.27	1.04	100	1	2.4	0.5	0	0	0	0	0	0	0	0	0	0	0;
	14284	0	0	1.37	-0.3	1.04	100	0	2.7	0.97	0	0	0	0	0	0	0	0	0	0	0;
	14284	3	1.53	1.53	-0.33	1.04	100	1	3	0.87	0	0	0	0	0	0	0	0	0	0	0;
...
];

%% branch data
%	fbus	tbus	r	x	b	rateA	rateB	rateC	ratio	angle	status	angmin	angmax
mpc.branch = [
	11001	11005	0.000215	0.001126	0	9999	9999	9999	0	0	1	-360	360;
	11001	11006	0.000217	0.001008	0	9999	9999	9999	0	0	1	-360	360;
	11002	11454	0.050114	0.11071	0.01573	9999	9999	9999	0	0	1	-360	360;
	19072	11002	0.071823	0.15758	0.00617	9999	9999	9999	0	0	1	-360	360;
	11006	11039	0.010403	0.056167	0.02513	9999	9999	9999	0	0	1	-360	360;
	11007	11008	0.000223	0.001118	0	9999	9999	9999	0	0	1	-360	360;
	11007	11334	0.056116	0.124373	0.006	9999	9999	9999	0	0	1	-360	360;
	19212	11007	0.042489	0.099326	0.00552	9999	9999	9999	0	0	1	-360	360;
	11009	11010	0.000273	0.001168	0	9999	9999	9999	0	0	1	-360	360;
	11010	11305	0.059415	0.174267	0.00734	9999	9999	9999	0	0	1	-360	360;
	11010	11334	0.037745	0.108973	0.00426	9999	9999	9999	0	0	1	-360	360;
	11011	11012	0.000231	0.001092	0	9999	9999	9999	0	0	1	-360	360;
	11011	11013	0.000205	0.001193	0	9999	9999	9999	0	0	1	-360	360;
	11011	11014	0.000253	0.001143	0	9999	9999	9999	0	0	1	-360	360;
	11011	11015	0.000249	0.001164	0	9999	9999	9999	0	0	1	-360	360;
	11013	11021	0.013892	0.03794	0.00151	9999	9999	9999	0	0	1	-360	360;
	11013	11054	0.028278	0.073529	0.00727	9999	9999	9999	0	0	1	-360	360;
	33230	11013	0.063132	0.165346	0.00369	9999	9999	9999	0	0	1	-360	360;
	11016	11018	0.00026	0.001199	0	9999	9999	9999	0	0	1	-360	360;
	11053	11016	0.004374	0.027125	0.01133	9999	9999	9999	0	0	1	-360	360;
	11016	11175	0.006986	0.052736	0.02789	9999	9999	9999	0	0	1	-360	360;
	11017	11025	0.014564	0.035069	0.00354	9999	9999	9999	0	0	1	-360	360;
	11069	11017	0.033657	0.064458	0.0013	9999	9999	9999	0	0	1	-360	360;
	11019	11020	0.000248	0.001194	0	9999	9999	9999	0	0	1	-360	360;
	11019	11168	0.00974	0.064926	0.0686	9999	9999	9999	0	0	1	-360	360;
	33351	11019	0.011245	0.078461	0.06179	9999	9999	9999	0	0	1	-360	360;
	11021	11022	0.000289	0.001125	0	9999	9999	9999	0	0	1	-360	360;
	11028	11021	0.014188	0.035442	0.00145	9999	9999	9999	0	0	1	-360	360;
	11023	11036	0.017927	0.040578	0.02138	9999	9999	9999	0	0	1	-360	360;
	11023	11054	0.013547	0.029109	0.00257	9999	9999	9999	0	0	1	-360	360;
	11023	11076	0.02258	0.054078	0.00228	9999	9999	9999	0	0	1	-360	360;
	11023	11408	0.02295	0.072607	0.00531	9999	9999	9999	0	0	1	-360	360;
	11024	11025	0.000204	0.00113	0	9999	9999	9999	0	0	1	-360	360;
	11024	11026	0.000232	0.00118	0	9999	9999	9999	0	0	1	-360	360;
	11025	11028	0.033203	0.070185	0.00473	9999	9999	9999	0	0	1	-360	360;
	11027	11029	0.000296	0.001065	0	9999	9999	9999	0	0	1	-360	360;
	11027	11031	0.002491	0.015975	0.01111	9999	9999	9999	0	0	1	-360	360;
	11081	11027	0.011539	0.062997	0.01082	9999	9999	9999	0	0	1	-360	360;
	11027	11168	0.006825	0.038746	0.05317	9999	9999	9999	0	0	1	-360	360;
	11028	11499	0.030259	0.074922	0.00497	9999	9999	9999	0	0	1	-360	360;
	11030	11034	0.000231	0.001109	0	9999	9999	9999	0	0	1	-360	360;
	11030	11035	0.000227	0.001043	0	9999	9999	9999	0	0	1	-360	360;
	11052	11031	0.007656	0.033289	0.01922	9999	9999	9999	0	0	1	-360	360;
	33351	11031	0.005873	0.040635	0.03466	9999	9999	9999	0	0	1	-360	360;
	11178	11034	0.001046	0.012506	0.33891	9999	9999	9999	0	0	1	-360	360;
	11034	33349	0.000719	0.007864	0.20393	9999	9999	9999	0	0	1	-360	360;
	33273	11036	0.039632	0.099218	0.00589	9999	9999	9999	0	0	1	-360	360;
	33292	11036	0.018148	0.044558	0.00128	9999	9999	9999	0	0	1	-360	360;
	11037	11038	0.000205	0.001135	0	9999	9999	9999	0	0	1	-360	360;
	11037	11408	0.03603	0.085518	0.00547	9999	9999	9999	0	0	1	-360	360;
	11499	11037	0.024391	0.04971	0.00331	9999	9999	9999	0	0	1	-360	360;
	11039	11065	0.015162	0.067014	0.01975	9999	9999	9999	0	0	1	-360	360;
	11039	11162	0.012009	0.069413	0.01867	9999	9999	9999	0	0	1	-360	360;
	11040	11314	0.035009	0.078367	0.00955	9999	9999	9999	0	0	1	-360	360;
	11040	11499	0.018263	0.045782	0.00351	9999	9999	9999	0	0	1	-360	360;
	11041	11042	0.000243	0.001063	0	9999	9999	9999	0	0	1	-360	360;
	11041	11054	0.01704	0.039457	0.00153	9999	9999	9999	0	0	1	-360	360;
	11041	11069	0.021822	0.046081	0.00215	9999	9999	9999	0	0	1	-360	360;
	11041	11076	0.021925	0.047333	0.00494	9999	9999	9999	0	0	1	-360	360;
	11295	11041	0.01188	0.033105	0.0031	9999	9999	9999	0	0	1	-360	360;
	11043	11044	0.000233	0.001153	0	9999	9999	9999	0	0	1	-360	360;
	11043	11045	0.000217	0.00108	0	9999	9999	9999	0	0	1	-360	360;
	11043	11046	0.000209	0.001132	0	9999	9999	9999	0	0	1	-360	360;
	11150	11044	0.049758	0.137432	0.00703	9999	9999	9999	0	0	1	-360	360;
	11044	11312	0.051626	0.118622	0.00527	9999	9999	9999	0	0	1	-360	360;
	11047	11049	0.000295	0.00105	0	9999	9999	9999	0	0	1	-360	360;
	11048	11388	0.016028	0.044469	0.02468	9999	9999	9999	0	0	1	-360	360;
	11048	11413	0.03409	0.086686	0.00305	9999	9999	9999	0	0	1	-360	360;
	11289	11049	0.004399	0.029082	0.05846	9999	9999	9999	0	0	1	-360	360;
	11049	11395	0.007719	0.047114	0.01822	9999	9999	9999	0	0	1	-360	360;
	11050	11051	0.000272	0.001074	0	9999	9999	9999	0	0	1	-360	360;
	11050	11314	0.010601	0.029526	0.00156	9999	9999	9999	0	0	1	-360	360;
	11388	11050	0.026244	0.056772	0.00232	9999	9999	9999	0	0	1	-360	360;
	11052	11053	0.007752	0.047314	0.01236	9999	9999	9999	0	0	1	-360	360;
	33071	11052	0.014122	0.062396	0.01665	9999	9999	9999	0	0	1	-360	360;
	11053	11055	0.000238	0.001023	0	9999	9999	9999	0	0	1	-360	360;
	11054	11066	0.010138	0.027755	0.00303	9999	9999	9999	0	0	1	-360	360;
	11054	11167	0.024781	0.079027	0.01086	9999	9999	9999	0	0	1	-360	360;
	11054	11167	0.024781	0.079027	0.01086	9999	9999	9999	0	0	1	-360	360;
	11054	11167	0.024781	0.079027	0.01086	9999	9999	9999	0	0	1	-360	360;
	11054	11295	0.01895	0.044741	0.00264	9999	9999	9999	0	0	1	-360	360;
	11070	11056	0.026366	0.078299	0.00245	9999	9999	9999	0	0	1	-360	360;
	11056	11312	0.020744	0.056228	0.00342	9999	9999	9999	0	0	1	-360	360;
	11057	11058	0.000207	0.00107	0	9999	9999	9999	0	0	1	-360	360;
	11057	11059	0.000272	0.001188	0	9999	9999	9999	0	0	1	-360	360;
	11057	11060	0.000234	0.00112	0	9999	9999	9999	0	0	1	-360	360;
	11059	11066	0.030991	0.059245	0.0119	9999	9999	9999	0	0	1	-360	360;
	33292	11059	0.050557	0.142688	0.00536	9999	9999	9999	0	0	1	-360	360;
	11061	11064	0.000255	0.00118	0	9999	9999	9999	0	0	1	-360	360;
	11061	11158	0.000839	0.009639	0.32984	9999	9999	9999	0	0	1	-360	360;
	11426	11061	0.001274	0.016422	0.15202	9999	9999	9999	0	0	1	-360	360;
	11062	11065	0.000236	0.001148	0	9999	9999	9999	0	0	1	-360	360;
	11063	11150	0.049582	0.137457	0.00335	9999	9999	9999	0	0	1	-360	360;
	11149	11065	0.00646	0.044195	0.01889	9999	9999	9999	0	0	1	-360	360;
	33071	11065	0.034455	0.197697	0.08962	9999	9999	9999	0	0	1	-360	360;
	11066	11067	0.000227	0.001127	0	9999	9999	9999	0	0	1	-360	360;
	11076	11066	0.017556	0.04232	0.0016	9999	9999	9999	0	0	1	-360	360;
	11066	11295	0.005158	0.01524	0.00089	9999	9999	9999	0	0	1	-360	360;
	11068	11069	0.000292	0.001165	0	9999	9999	9999	0	0	1	-360	360;
	11069	11328	0.033362	0.088688	0.00247	9999	9999	9999	0	0	1	-360	360;
	11070	11071	0.00022	0.001031	0	9999	9999	9999	0	0	1	-360	360;
	11070	11337	0.039905	0.095309	0.00393	9999	9999	9999	0	0	1	-360	360;
	11072	11073	0.000261	0.001129	0	9999	9999	9999	0	0	1	-360	360;
	11079	11073	0.03208	0.094687	0.00248	9999	9999	9999	0	0	1	-360	360;
	11073	11150	0.038973	0.091373	0.00487	9999	9999	9999	0	0	1	-360	360;
	11073	11214	0.030003	0.078563	0.00944	9999	9999	9999	0	0	1	-360	360;
	11073	11328	0.040244	0.096441	0.00809	9999	9999	9999	0	0	1	-360	360;
	11074	11075	0.000274	0.001156	0	9999	9999	9999	0	0	1	-360	360;
	33351	11074	0.040498	0.196119	0.05646	9999	9999	9999	0	0	1	-360	360;
	33491	11074	0.019066	0.131937	0.07989	9999	9999	9999	0	0	1	-360	360;
	11076	11077	0.000215	0.001097	0	9999	9999	9999	0	0	1	-360	360;
	11076	11167	0.039116	0.081701	0.00722	9999	9999	9999	0	0	1	-360	360;
	11076	11167	0.039116	0.081701	0.00722	9999	9999	9999	0	0	1	-360	360;
	11076	11167	0.039116	0.081701	0.00722	9999	9999	9999	0	0	1	-360	360;
	11076	11295	0.007619	0.020808	0.00339	9999	9999	9999	0	0	1	-360	360;
	11078	11080	0.000222	0.001036	0	9999	9999	9999	0	0	1	-360	360;
	11078	11081	0.000279	0.001011	0	9999	9999	9999	0	0	1	-360	360;
	11218	11081	0.006701	0.040696	0.02302	9999	9999	9999	0	0	1	-360	360;
	11082	11083	0.000218	0.001122	0	9999	9999	9999	0	0	1	-360	360;
	11082	11100	0.02825	0.066635	0.00179	9999	9999	9999	0	0	1	-360	360;
	11082	11141	0.023033	0.075214	0.01395	9999	9999	9999	0	0	1	-360	360;
	11082	11176	0.03465	0.059597	0.00217	9999	9999	9999	0	0	1	-360	360;
	11082	11300	0.020956	0.051946	0.00121	9999	9999	9999	0	0	1	-360	360;
	11090	11084	0.014224	0.042822	0.00214	9999	9999	9999	0	0	1	-360	360;
	11084	11098	0.022973	0.055587	0.00497	9999	9999	9999	0	0	1	-360	360;
	11190	11084	0.016333	0.039188	0.00246	9999	9999	9999	0	0	1	-360	360;
	11085	11089	0.00026	0.001066	0	9999	9999	9999	0	0	1	-360	360;
	11086	11090	0.014457	0.036504	0.00141	9999	9999	9999	0	0	1	-360	360;
	11086	11093	0.024201	0.059954	0.00266	9999	9999	9999	0	0	1	-360	360;
	11086	11098	0.010981	0.028501	0.00168	9999	9999	9999	0	0	1	-360	360;
	11190	11086	0.035444	0.073733	0.00299	9999	9999	9999	0	0	1	-360	360;
	11092	11089	0.003483	0.020791	0.00679	9999	9999	9999	0	0	1	-360	360;
	11146	11089	0.004601	0.021834	0.03793	9999	9999	9999	0	0	1	-360	360;
	11219	11089	0.00429	0.026192	0.00937	9999	9999	9999	0	0	1	-360	360;
	11098	11090	0.016198	0.040277	0.00222	9999	9999	9999	0	0	1	-360	360;
	11091	11178	0.000405	0.005522	0.12569	9999	9999	9999	0	0	1	-360	360;
	11091	11178	0.000405	0.005522	0.12569	9999	9999	9999	0	0	1	-360	360;
	11383	11091	0.001313	0.016112	0.33683	9999	9999	9999	0	0	1	-360	360;
	11383	11091	0.001313	0.016112	0.33683	9999	9999	9999	0	0	1	-360	360;
	11426	11091	0.000668	0.007929	0.19477	9999	9999	9999	0	0	1	-360	360;
	11092	11094	0.000234	0.001092	0	9999	9999	9999	0	0	1	-360	360;
	11092	11101	0.002414	0.013749	0.00868	9999	9999	9999	0	0	1	-360	360;
	11106	11092	0.005572	0.033498	0.02185	9999	9999	9999	0	0	1	-360	360;
	11092	11168	0.008651	0.045886	0.02578	9999	9999	9999	0	0	1	-360	360;
	11092	11218	0.011705	0.037036	0.02738	9999	9999	9999	0	0	1	-360	360;
	11093	11097	0.023203	0.051844	0.00305	9999	9999	9999	0	0	1	-360	360;
	11098	11093	0.018009	0.040602	0.00474	9999	9999	9999	0	0	1	-360	360;
	11098	11093	0.018009	0.040602	0.00474	9999	9999	9999	0	0	1	-360	360;
	11098	11093	0.018009	0.040602	0.00474	9999	9999	9999	0	0	1	-360	360;
	11300	11093	0.011412	0.026696	0.00274	9999	9999	9999	0	0	1	-360	360;
	11108	11095	0.007596	0.018339	0.00123	9999	9999	9999	0	0	1	-360	360;
	11095	11176	0.019782	0.04579	0.00745	9999	9999	9999	0	0	1	-360	360;
	11095	11225	0.021168	0.067028	0.00382	9999	9999	9999	0	0	1	-360	360;
	11095	11300	0.034849	0.085022	0.00153	9999	9999	9999	0	0	1	-360	360;
	11096	11205	0.031926	0.043095	0.0178	9999	9999	9999	0	0	1	-360	360;
	11358	11096	0.017365	0.03308	0.00149	9999	9999	9999	0	0	1	-360	360;
	11097	11104	0.03121	0.072237	0.00528	9999	9999	9999	0	0	1	-360	360;
	11097	11108	0.01355	0.030952	0.00291	9999	9999	9999	0	0	1	-360	360;
	11098	11099	0.000273	0.001183	0	9999	9999	9999	0	0	1	-360	360;
	11098	11214	0.029387	0.079619	0.01173	9999	9999	9999	0	0	1	-360	360;
	11098	11214	0.029387	0.079619	0.01173	9999	9999	9999	0	0	1	-360	360;
	11098	11331	0.026647	0.070878	0.00852	9999	9999	9999	0	0	1	-360	360;
	11098	11331	0.026647	0.070878	0.00852	9999	9999	9999	0	0	1	-360	360;
	11098	11331	0.026647	0.070878	0.00852	9999	9999	9999	0	0	1	-360	360;
	11100	11167	0.021715	0.065944	0.00456	9999	9999	9999	0	0	1	-360	360;
	11100	11169	0.024477	0.064572	0.00371	9999	9999	9999	0	0	1	-360	360;
	11100	11176	0.024018	0.062098	0.0011	9999	9999	9999	0	0	1	-360	360;
	11190	11100	0.023553	0.064709	0.00621	9999	9999	9999	0	0	1	-360	360;
	11328	11100	0.017313	0.048474	0.00622	9999	9999	9999	0	0	1	-360	360;
	11101	11102	0.000242	0.001034	0	9999	9999	9999	0	0	1	-360	360;
	11175	11101	0.005579	0.028054	0.00974	9999	9999	9999	0	0	1	-360	360;
	33212	11101	0.024397	0.144546	0.02875	9999	9999	9999	0	0	1	-360	360;
	33236	11101	0.020558	0.111363	0.03978	9999	9999	9999	0	0	1	-360	360;
	11103	11105	0.000269	0.001081	0	9999	9999	9999	0	0	1	-360	360;
	11103	11106	0.000299	0.001135	0	9999	9999	9999	0	0	1	-360	360;
	11103	11107	0.000279	0.001189	0	9999	9999	9999	0	0	1	-360	360;
	11104	11135	0.032316	0.073925	0.0038	9999	9999	9999	0	0	1	-360	360;
	11187	11104	0.022475	0.06114	0.01068	9999	9999	9999	0	0	1	-360	360;
	11136	11106	0.006869	0.039399	0.00851	9999	9999	9999	0	0	1	-360	360;
	11108	11300	0.014227	0.033096	0.00237	9999	9999	9999	0	0	1	-360	360;
	11109	11151	0.018627	0.085447	0.02205	9999	9999	9999	0	0	1	-360	360;
	11448	11109	0.02237	0.08867	0.0745	9999	9999	9999	0	0	1	-360	360;
	11110	11112	0.00027	0.001069	0	9999	9999	9999	0	0	1	-360	360;
	11124	11111	0.006678	0.017379	0.00064	9999	9999	9999	0	0	1	-360	360;
	11116	11112	0.003154	0.019015	0.00691	9999	9999	9999	0	0	1	-360	360;
	11117	11112	0.006512	0.031416	0.01673	9999	9999	9999	0	0	1	-360	360;
	11112	11424	0.003892	0.020421	0.03045	9999	9999	9999	0	0	1	-360	360;
	11113	11115	0.000223	0.001004	0	9999	9999	9999	0	0	1	-360	360;
	11113	11116	0.000236	0.00105	0	9999	9999	9999	0	0	1	-360	360;
	11114	11123	0.037484	0.092877	0.01449	9999	9999	9999	0	0	1	-360	360;
	11114	11124	0.029685	0.071335	0.00204	9999	9999	9999	0	0	1	-360	360;
	11116	11181	0.007466	0.033648	0.04319	9999	9999	9999	0	0	1	-360	360;
	11448	11117	0.007843	0.053007	0.01194	9999	9999	9999	0	0	1	-360	360;
	11118	11119	0.000295	0.001011	0	9999	9999	9999	0	0	1	-360	360;
	11210	11118	0.008858	0.046079	0.00964	9999	9999	9999	0	0	1	-360	360;
	11118	11379	0.006956	0.03416	0.08947	9999	9999	9999	0	0	1	-360	360;
	11118	11448	0.011015	0.046676	0.02399	9999	9999	9999	0	0	1	-360	360;
	33212	11118	0.023499	0.131399	0.07947	9999	9999	9999	0	0	1	-360	360;
	11120	11123	0.056234	0.146454	0.0065	9999	9999	9999	0	0	1	-360	360;
	11120	11123	0.056234	0.146454	0.0065	9999	9999	9999	0	0	1	-360	360;
...
];

%%-----  OPF Data  -----%%
%% generator cost data
%	1	startup	shutdown	n	x1	y1	...	xn	yn
%	2	startup	shutdown	n	c(n-1)	...	c0
mpc.gencost = [
	2	0	0	3	0	1	0;
	2	0	0	3	0	0	0;
	2	0	0	3	0	1	0;
	2	0	0	3	0	1	0;
	2	0	0	3	0	1	0;
	2	0	0	3	0	1	0;
	2	0	0	3	0	1	0;
	2	0	0	3	0	1	0;
	2	0	0	3	0	1	0;
	2	0	0	3	0	0	0;
	2	0	0	3	0	1	0;
	2	0	0	3	0	1	0;
	2	0	0	3	0	1	0;
	2	0	0	3	0	0	0;
	2	0	0	3	0	0	0;
	2	0	0	3	0	0	0;
	2	0	0	3	0	0	0;
	2	0	0	3	0	1	0;
	2	0	0	3	0	1	0;
	2	0	0	3	0	1	0;
	2	0	0	3	0	1	0;
	2	0	0	3	0	1	0;
	2	0	0	3	0	0	0;
	2	0	0	3	0	1	0;
	2	0	0	3	0	1	0;
	2	0	0	3	0	1	0;
	2	0	0	3	0	0	0;
	2	0	0	3	0	0	0;
	2	0	0	3	0	0	0;
	2	0	0	3	0	0	0;
	2	0	0	3	0	1	0;
	2	0	0	3	0	1	0;
	2	0	0	3	0	0	0;
	2	0	0	3	0	1	0;
	2	0	0	3	0	1	0;
	2	0	0	3	0	1	0;
	2	0	0	3	0	1	0;
	2	0	0	3	0	0	0;
	2	0	0	3	0	1	0;
	2	0	0	3	0	1	0;
	2	0	0	3	0	1	0;
	2	0	0	3	0	1	0;
	2	0	0	3	0	1	0;
	2	0	0	3	0	1	0;
	2	0	0	3	0	1	0;
	2	0	0	3	0	0	0;
	2	0	0	3	0	0	0;
	2	0	0	3	0	0	0;
	2	0	0	3	0	1	0;
	2	0	0	3	0	0	0;
	2	0	0	3	0	1	0;
	2	0	0	3	0	1	0;
	2	0	0	3	0	1	0;
	2	0	0	3	0	1	0;
	2	0	0	3	0	1	0;
	2	0	0	3	0	1	0;
	2	0	0	3	0	1	0;
	2	0	0	3	0	1	0;
	2	0	0	3	0	1	0;
	2	0	0	3	0	1	0;
	2	0	0	3	0	0	0;
	2	0	0	3	0	0	0;
	2	0	0	3	0	1	0;
	2	0	0	3	0	1	0;
	2	0	0	3	0	1	0;
	2	0	0	3	0	1	0;
	2	0	0	3	0	0	0;
	2	0	0	3	0	0	0;
	2	0	0	3	0	1	0;
	2	0	0	3	0	0	0;
	2	0	0	3	0	1	0;
	2	0	0	3	0	1	0;
	2	0	0	3	0	1	0;
	2	0	0	3	0	1	0;
	2	0	0	3	0	1	0;
	2	0	0	3	0	0	0;
	2	0	0	3	0	0	0;
	2	0	0	3	0	0	0;
	2	0	0	3	0	1	0;
	2	0	0	3	0	1	0;
	2	0	0	3	0	1	0;
	2	0	0	3	0	1	0;
	2	0	0	3	0	1	0;
	2	0	0	3	0	1	0;
	2	0	0	3	0	1	0;
	2	0	0	3	0	1	0;
	2	0	0	3	0	1	0;
	2	0	0	3	0	1	0;
	2	0	0	3	0	1	0;
	2	0	0	3	0	1	0;
	2	0	0	3	0	1	0;
	2	0	0	3	0	1	0;
	2	0	0	3	0	1	0;
	2	0	0	3	0	1	0;
	2	0	0	3	0	1	0;
	2	0	0	3	0	1	0;
	2	0	0	3	0	1	0;
	2	0	0	3	0	1	0;
	2	0	0	3	0	1	0;
	2	0	0	3	0	0	0;
	2	0	0	3	0	1	0;
	2	0	0	3	0	1	0;
	2	0	0	3	0	1	0;
	2	0	0	3	0	1	0;
	2	0	0	3	0	0	0;
	2	0	0	3	0	0	0;
	2	0	0	3	0	0	0;
	2	0	0	3	0	0	0;
	2	0	0	3	0	1	0;
	2	0	0	3	0	0	0;
	2	0	0	3	0	1	0;
	2	0	0	3	0	1	0;
	2	0	0	3	0	1	0;
	2	0	0	3	0	1	0;
	2	0	0	3	0	1	0;
	2	0	0	3	0	1	0;
	2	0	0	3	0	1	0;
	2	0	0	3	0	1	0;
	2	0	0	3	0	1	0;
	2	0	0	3	0	1	0;
	2	0	0	3	0	1	0;
	2	0	0	3	0	1	0;
	2	0	0	3	0	1	0;
	2	0	0	3	0	1	0;
	2	0	0	3	0	1	0;
	2	0	0	3	0	1	0;
	2	0	0	3	0	1	0;
	2	0	0	3	0	1	0;
	2	0	0	3	0	1	0;
	2	0	0	3	0	0	0;
	2	0	0	3	0	0	0;
	2	0	0	3	0	0	0;
	2	0	0	3	0	0	0;
	2	0	0	3	0	0	0;
	2	0	0	3	0	0	0;
	2	0	0	3	0	0	0;
	2	0	0	3	0	0	0;
	2	0	0	3	0	0	0;
	2	0	0	3	0	0	0;
	2	0	0	3	0	1	0;
	2	0	0	3	0	0	0;
	2	0	0	3	0	1	0;
	2	0	0	3	0	1	0;
	2	0	0	3	0	1	0;
	2	0	0	3	0	0	0;
	2	0	0	3	0	1	0;
	2	0	0	3	0	0	0;
	2	0	0	3	0	0	0;
	2	0	0	3	0	1	0;
	2	0	0	3	0	1	0;
	2	0	0	3	0	1	0;
	2	0	0	3	0	0	0;
	2	0	0	3	0	0	0;
	2	0	0	3	0	0	0;
	2	0	0	3	0	0	0;
	2	0	0	3	0	0	0;
	2	0	0	3	0	1	0;
	2	0	0	3	0	1	0;
	2	0	0	3	0	1	0;
	2	0	0	3	0	1	0;
	2	0	0	3	0	1	0;
	2	0	0	3	0	1	0;
	2	0	0	3	0	1	0;
	2	0	0	3	0	1	0;
	2	0	0	3	0	1	0;
	2	0	0	3	0	1	0;
	2	0	0	3	0	1	0;
	2	0	0	3	0	1	0;
	2	0	0	3	0	1	0;
	2	0	0	3	0	1	0;
	2	0	0	3	0	1	0;
	2	0	0	3	0	1	0;
	2	0	0	3	0	1	0;
	2	0	0	3	0	1	0;
	2	0	0	3	0	1	0;
	2	0	0	3	0	1	0;
	2	0	0	3	0	1	0;
	2	0	0	3	0	1	0;
	2	0	0	3	0	1	0;
	2	0	0	3	0	1	0;
	2	0	0	3	0	0	0;
	2	0	0	3	0	0	0;
	2	0	0	3	0	1	0;
	2	0	0	3	0	1	0;
	2	0	0	3	0	1	0;
	2	0	0	3	0	1	0;
	2	0	0	3	0	1	0;
	2	0	0	3	0	1	0;
	2	0	0	3	0	1	0;
	2	0	0	3	0	1	0;
	2	0	0	3	0	1	0;
	2	0	0	3	0	1	0;
	2	0	0	3	0	1	0;
	2	0	0	3	0	1	0;
	2	0	0	3	0	1	0;
	2	0	0	3	0	1	0;
	2	0	0	3	0	1	0;
	2	0	0	3	0	1	0;
	2	0	0	3	0	0	0;
	2	0	0	3	0	1	0;
...
];

%% bus names
mpc.bus_name = {
	'NEWBERRY 1  ';
	'NEWBERRY 2  ';
	'NEWBERRY 3  ';
	'NEWBERRY 4  ';
	'NEWBERRY 5  ';
	'NEWBERRY 7  ';
	'POMARIA 1   ';
	'POMARIA 2   ';
	'WHITMIRE 1  ';
	'WHITMIRE 2  ';
	'SPARTANBUR~1';
	'SPARTANBUR~2';
	'SPARTANBUR~3';
	'SPARTANBUR~4';
	'SPARTANBUR~5';
	'SPARTANBUR~6';
	'SPARTANBUR~7';
	'SPARTANBUR~8';
	'SPARTANBUR~9';
	'SPARTANBU~10';
	'SPARTANBU~11';
	'SPARTANBU~12';
	'SPARTANBU~13';
	'SPARTANBU~14';
	'SPARTANBU~15';
	'SPARTANBU~16';
	'SPARTANBU~17';
	'SPARTANBU~18';
	'SPARTANBU~19';
	'BOILING SP~3';
	'BOILING SP~4';
	'BOILING SP~5';
	'BOILING SP~6';
	'BOILING SP~7';
	'BOILING SP~8';
	'CAMPOBELLO 1';
	'CHESNEE 1 1 ';
	'CHESNEE 1 2 ';
	'CLINTON 12 1';
	'COWPENS 1   ';
	'DUNCAN 1    ';
	'DUNCAN 2    ';
	'ENOREE 1    ';
	'ENOREE 2    ';
	'ENOREE 4    ';
	'ENOREE 6    ';
	'GAFFNEY 1 1 ';
	'GAFFNEY 1 2 ';
	'GAFFNEY 1 3 ';
	'GAFFNEY 2 1 ';
	'GAFFNEY 2 2 ';
	'INMAN 1 1   ';
	'INMAN 2 1   ';
	'INMAN 2 2   ';
	'INMAN 2 3   ';
	'JONESVILLE~7';
	'LANDRUM 1   ';
	'LANDRUM 2   ';
	'LANDRUM 4   ';
	'LANDRUM 6   ';
	'LAURENS 1   ';
	'LAURENS 2   ';
	'LAURENS 3   ';
	'LAURENS 4   ';
	'LAURENS 6   ';
	'LYMAN 1     ';
	'LYMAN 2     ';
	'MOORE 1     ';
	'MOORE 2     ';
	'PACOLET 1 1 ';
	'PACOLET 1 2 ';
	'ROEBUCK 1   ';
	'ROEBUCK 2   ';
	'UNION 4 1   ';
	'UNION 4 2   ';
	'WELLFORD 1 1';
	'WELLFORD 1 2';
	'WOODRUFF 1  ';
	'WOODRUFF 2  ';
	'WOODRUFF 3  ';
	'WOODRUFF 5  ';
	'GREENVILL~16';
	'GREENVILL~17';
	'GREENVILL~18';
	'GREENVILL~19';
	'GREENVILL~20';
	'GREENVILL~21';
	'GREENVILL~22';
	'GREENVILL~23';
	'GREENVILL~24';
	'GREENVILL~25';
	'GREENVILL~26';
	'GREENVILL~27';
	'GREENVILL~28';
	'GREENVILL~30';
	'GREENVILL~31';
	'GREENVILL~32';
	'GREENVILL~33';
	'GREENVILL~34';
	'GREENVILL~35';
	'GREENVILL~36';
	'GREENVILL~37';
	'GREENVILL~38';
	'GREENVILL~39';
	'GREENVILL~40';
	'GREENVILL~41';
	'GREENVILL~42';
	'GREENVILL~43';
	'ABBEVILLE ~1';
	'ANDERSON 1 1';
	'ANDERSON 1 2';
	'ANDERSON 1 3';
	'ANDERSON 2 1';
	'ANDERSON 2 2';
	'ANDERSON 2 3';
	'ANDERSON 2 5';
	'ANDERSON 3 1';
	'ANDERSON 4 1';
	'ANDERSON 4 2';
	'ANDERSON 5 1';
	'ANDERSON 6 1';
	'ANDERSON 6 2';
	'ANDERSON 6 4';
	'BELTON 1    ';
	'BELTON 2    ';
	'CALHOUN FA~1';
	'CALHOUN FA~2';
	'CENTRAL 1   ';
	'CLEMSON 1 1 ';
	'CLEMSON 2 1 ';
	'CLEMSON 2 2 ';
	'DONALDS 1   ';
	'DONALDS 2   ';
	'EASLEY 1 1  ';
	'EASLEY 1 2  ';
	'EASLEY 2 1  ';
	'EASLEY 2 2  ';
	'EASLEY 2 3  ';
	'EASLEY 2 4  ';
	'EASLEY 2 5  ';
	'EASLEY 3 1  ';
	'EASLEY 4 1  ';
	'EASLEY 4 2  ';
	'EASLEY 4 3  ';
	'EASLEY 4 4  ';
	'EASLEY 4 5  ';
	'EASLEY 4 7  ';
	'FAIR PLAY 1 ';
	'FOUNTAIN I~1';
	'GRAY COURT 1';
	'GREENWOOD ~2';
	'GREENWOOD ~3';
	'GREENWOOD ~4';
	'GREENWOOD ~5';
	'GREENWOOD ~6';
	'GREENWOOD ~7';
	'GREENWOOD ~8';
	'GREENWOOD ~9';
	'GREENWOOD~10';
	'GREENWOOD~11';
	'GREENWOOD~12';
	'GREENWOOD~13';
	'GREENWOOD~14';
	'GREENWOOD~15';
	'GREER 1 1   ';
	'GREER 1 2   ';
	'GREER 1 4   ';
	'GREER 2 1   ';
	'GREER 2 2   ';
	'GREER 2 3   ';
	'GREER 2 4   ';
	'GREER 2 5   ';
	'GREER 3 1   ';
	'GREER 4 1   ';
	'GREER 4 2   ';
	'GREER 4 3   ';
	'GREER 4 4   ';
	'GREER 4 6   ';
	'HODGES 1    ';
	'HONEA PATH~1';
	'HONEA PATH~2';
	'HONEA PATH~3';
	'IVA 1 1     ';
	'IVA 1 2     ';
	'LIBERTY 3 1 ';
	'LIBERTY 3 2 ';
	'MARIETTA 3 1';
	'MARIETTA 3 2';
	'MAULDIN 1   ';
	'MAULDIN 2   ';
	'NINETY SIX 1';
	'NINETY SIX 2';
	'PELZER 1 1  ';
	'PELZER 1 2  ';
	'PENDLETON 1 ';
	'PENDLETON 2 ';
	'PENDLETON 4 ';
	'PICKENS 1   ';
	'PICKENS 2   ';
	'PICKENS 3   ';
	'PICKENS 4   ';
	'PICKENS 5   ';
	'SENECA 2 1  ';
	'SENECA 2 2  ';
	'PIEDMONT 1 1';
	'PIEDMONT 1 2';
	'PIEDMONT 2 1';
	'PIEDMONT 2 2';
	'SALEM 13 1  ';
	'SENECA 3 1  ';
	'SIMPSONVIL~1';
	'SIMPSONVIL~2';
	'SIMPSONVIL~3';
	'SIMPSONVIL~4';
	'SIMPSONVIL~5';
	'SIMPSONVIL~6';
	'SIMPSONVIL~7';
	'SIMPSONVIL~8';
	'SIMPSONVIL~9';
	'SIMPSONVI~10';
	'SIX MILE 1  ';
	'SIX MILE 2  ';
	'STARR 1 1   ';
	'STARR 1 2   ';
	'TAYLORS 1 1 ';
	'TAYLORS 2 1 ';
	'TRAVELERS ~1';
	'TRAVELERS ~2';
	'TRAVELERS ~3';
	'TRAVELERS ~4';
	'TRAVELERS ~5';
	'TRAVELERS ~6';
	'WALHALLA 1  ';
	'WARE SHOAL~1';
	'WESTMINST~27';
	'WESTMINST~28';
	'WESTMINST~29';
	'WEST UNION~1';
	'WILLIAMST~13';
	'WILLIAMST~14';
	'WILLIAMST~15';
	'BLACKSBUR~13';
	'BLACKSBUR~14';
	'CATAWBA 2 1 ';
	'CATAWBA 2 2 ';
	'CHESTER 18 1';
	'CHESTER 18 2';
	'FORT MILL ~1';
	'FORT MILL ~2';
	'FORT MILL ~3';
	'FORT MILL ~4';
	'FORT MILL ~5';
	'FORT MILL ~6';
	'FORT MILL ~7';
	'FORT MILL ~8';
	'CLOVER 3 1  ';
	'CLOVER 3 2  ';
	'CLOVER 3 3  ';
	'CLOVER 3 5  ';
	'CLOVER 4 1  ';
	'CLOVER 4 2  ';
	'CLOVER 4 3  ';
	'FORT LAWN 1 ';
	'FORT LAWN 2 ';
	'FORT MILL ~9';
	'FORT MILL~10';
	'LANCASTER~12';
	'LANCASTER~13';
	'LANCASTER~14';
	'LANCASTER~15';
	'ROCK HILL ~3';
	'ROCK HILL ~4';
	'ROCK HILL ~5';
	'ROCK HILL ~6';
	'ROCK HILL ~7';
	'ROCK HILL ~8';
	'ROCK HILL ~9';
	'ROCK HILL~10';
	'ROCK HILL~11';
	'ROCK HILL~12';
	'ROCK HILL~13';
	'ROCK HILL~14';
	'ROCK HILL~15';
	'ROCK HILL~16';
	'YORK 14 1   ';
	'YORK 15 1   ';
	'YORK 15 2   ';
	'YORK 15 3   ';
	'YORK 15 5   ';
	'MC CORMICK 1';
	'MC CORMICK 2';
	'MC CORMICK 4';
	'WELLFORD 2 1';
	'WELLFORD 2 2';
	'WELLFORD 2 3';
	'WELLFORD 2 5';
	'YORK 16 1   ';
	'YORK 16 2   ';
	'GREENVILL~44';
	'GREENVILL~45';
	'UNION 5 1   ';
	'UNION 5 2   ';
	'UNION 5 3   ';
	'UNION 5 4   ';
	'UNION 5 5   ';
	'UNION 5 7   ';
	'UNION 5 9   ';
	'UNION 6 1   ';
	'UNION 6 2   ';
	'UNION 6 3   ';
	'UNION 6 4   ';
	'UNION 6 5   ';
	'GAFFNEY 3 1 ';
	'GAFFNEY 3 2 ';
	'GAFFNEY 3 3 ';
	'GAFFNEY 3 4 ';
	'GAFFNEY 3 5 ';
	'GAFFNEY 3 7 ';
	'LOCKHART 1  ';
	'LOCKHART 2  ';
	'LOCKHART 3  ';
	'LOCKHART 4  ';
	'LOCKHART 5  ';
	'GREER 5 1   ';
	'GREER 5 2   ';
	'GREER 5 3   ';
	'GREER 5 4   ';
	'GREER 5 5   ';
	'PELZER 2 1  ';
	'PELZER 2 2  ';
	'PELZER 2 3  ';
	'PACOLET 2 1 ';
	'GAFFNEY 4 1 ';
	'CARLISLE 4 1';
	'PACOLET 3 1 ';
	'PACOLET 3 2 ';
	'PACOLET 3 3 ';
	'FORT MILL~11';
	'FORT MILL~12';
	'FORT MILL~13';
	'FORT MILL~14';
	'FORT MILL~15';
	'FORT MILL~16';
	'PIEDMONT 3 1';
	'PIEDMONT 3 2';
	'PIEDMONT 3 3';
	'PIEDMONT 3 4';
	'PIEDMONT 3 5';
	'PIEDMONT 3 6';
	'PIEDMONT 3 8';
	'GREENVILL~46';
	'GREENVILL~49';
	'GREENVILL~50';
	'GREENVILL~51';
	'GREENVILL~52';
	'GREENVILL~53';
	'GREENVILL~54';
	'GREENVILL~55';
	'GREENVILL~47';
	'GREENVILL~48';
	'WARE SHOAL~2';
	'WARE SHOAL~3';
	'WARE SHOAL~4';
	'WARE SHOAL~5';
	'IVA 2 1     ';
	'IVA 2 2     ';
	'IVA 2 3     ';
	'IVA 2 4     ';
	'IVA 2 5     ';
	'SALEM 14 1  ';
	'SALEM 14 2  ';
	'SALEM 14 3  ';
	'SALEM 14 4  ';
	'SALEM 14 5  ';
	'SALEM 14 6  ';
	'SALEM 14 7  ';
	'SALEM 14 9  ';
	'SENECA 4 1  ';
	'SENECA 4 2  ';
	'SENECA 4 3  ';
	'SENECA 4 4  ';
	'SENECA 4 5  ';
	'SENECA 4 6  ';
	'SENECA 4 8  ';
	'SENECA 4 10 ';
	'GAFFNEY 5 1 ';
	'GAFFNEY 5 2 ';
	'GAFFNEY 5 3 ';
	'GAFFNEY 5 4 ';
	'GAFFNEY 5 5 ';
	'GAFFNEY 5 6 ';
	'GAFFNEY 5 7 ';
	'GAFFNEY 5 8 ';
	'GAFFNEY 5 9 ';
	'GAFFNEY 5 11';
	'BLACKSBUR~15';
	'PELZER 3 1  ';
	'PELZER 3 2  ';
	'PELZER 3 4  ';
	'WARE SHOAL~6';
	'WARE SHOAL~7';
	'WARE SHOAL~8';
	'WARE SHOAL~9';
	'WARE SHOA~10';
	'CHESNEE 2 1 ';
	'CHESNEE 2 2 ';
	'CHESNEE 2 3 ';
	'CHESNEE 2 4 ';
	'CHESNEE 2 6 ';
	'CHESNEE 2 8 ';
	'CHESNEE 2 10';
	'BLACKSBUR~16';
	'BLACKSBUR~17';
	'WESTMINST~30';
	'WESTMINST~31';
	'WESTMINST~32';
	'ROCK HILL~17';
	'WILLIAMST~16';
	'WILLIAMST~19';
	'WILLIAMST~20';
	'WILLIAMST~21';
	'WILLIAMST~22';
	'WILLIAMST~23';
	'WILLIAMST~24';
	'WILLIAMST~25';
	'WILLIAMST~17';
	'WILLIAMST~18';
	'YORK 17 1   ';
	'YORK 17 2   ';
	'YORK 17 3   ';
	'YORK 17 4   ';
	'YORK 17 5   ';
	'YORK 17 6   ';
	'YORK 17 7   ';
	'YORK 17 8   ';
	'YORK 17 10  ';
	'STARR 2 1   ';
	'STARR 2 2   ';
	'STARR 2 3   ';
	'STARR 2 4   ';
	'STARR 2 5   ';
	'STARR 2 6   ';
	'STARR 2 7   ';
	'STARR 2 8   ';
	'STARR 2 9   ';
	'STARR 2 10  ';
	'STARR 2 11  ';
	'STARR 2 12  ';
	'STARR 2 14  ';
	'STARR 2 16  ';
	'CHAPPELLS 1 ';
	'CHAPPELLS 2 ';
	'CHAPPELLS 3 ';
	'CHAPPELLS 4 ';
	'CHAPPELLS 6 ';
	'GREER 6 1   ';
	'GREER 6 2   ';
	'GREER 6 3   ';
	'SENECA 5 1  ';
	'SENECA 5 2  ';
	'SENECA 5 3  ';
	'SENECA 5 4  ';
	'SENECA 5 5  ';
	'SENECA 5 7  ';
	'SALEM 15 1  ';
	'SALEM 15 2  ';
	'SALEM 15 3  ';
	'SALEM 15 4  ';
	'SALEM 15 5  ';
	'SALEM 15 6  ';
	'SIMPSONVI~11';
	'SIMPSONVI~12';
	'SIMPSONVI~13';
	'SIMPSONVI~14';
	'SIMPSONVI~15';
	'SIMPSONVI~16';
	'SIMPSONVI~17';
	'HONEA PATH~4';
	'HONEA PATH~5';
	'HONEA PATH~6';
	'HONEA PATH~7';
	'HONEA PATH~8';
	'HONEA PATH~9';
	'HONEA PAT~10';
	'CLEMSON 3 1 ';
	'CLEMSON 3 2 ';
	'ABBEVILLE ~2';
	'ABBEVILLE ~3';
	'BLACKSBUR~18';
	'BLACKSBUR~20';
	'BLACKSBUR~21';
	'BLACKSBUR~22';
	'BLACKSBUR~23';
	'BLACKSBUR~24';
	'BLACKSBUR~25';
	'BLACKSBUR~26';
	'BLACKSBUR~27';
	'BLACKSBUR~19';
	'CONVERSE 1  ';
	'AVENEL 1    ';
	'BAYONNE 1 1 ';
	'BAYONNE 1 2 ';
	'BAYONNE 1 3 ';
	'BAYONNE 2 1 ';
	'BLOOMFIELD~4';
	'BLOOMFIELD~5';
	'BLOOMFIELD~6';
	'BLOOMFIELD~7';
	'BLOOMFIELD~8';
	'BOONTON 1   ';
	'CALDWELL 1 1';
	'CARTERET 1 1';
	'CARTERET 1 2';
	'CEDAR GROV~1';
	'CEDAR GROV~2';
	'CLIFFSIDE ~1';
	'CLIFFSIDE ~2';
	'CLIFFSIDE ~3';
	'CLIFTON 1 1 ';
	'CLIFTON 1 2 ';
	'CLIFTON 2 1 ';
	'CLIFTON 3 1 ';
	'CLIFTON 3 2 ';
	'CLIFTON 4 1 ';
	'CRANFORD 1  ';
	'CRANFORD 2  ';
	'EAST ORANG~1';
	'EAST ORANG~2';
	'EAST ORANG~3';
	'EAST ORANG~4';
	'EAST ORANG~5';
	'EAST ORANG~6';
	'EAST ORANG~7';
	'EDGEWATER ~1';
	'EDGEWATER ~2';
	'FAIRVIEW 1 1';
	'FAIRVIEW 1 2';
	'FANWOOD 1   ';
	'FANWOOD 2   ';
	'FANWOOD 4   ';
	'FORT LEE 1 1';
	'FORT LEE 2 1';
	'FORT LEE 2 2';
	'GARFIELD 1 1';
	'GARFIELD 2 1';
	'GLEN RIDGE 1';
	'GLEN RIDGE 2';
	'GLEN RIDGE 4';
	'HARRISON 3 1';
	'HARRISON 3 2';
	'HARRISON 3 4';
	'HOBOKEN 1 1 ';
	'HOBOKEN 1 2 ';
	'HOBOKEN 2 1 ';
	'HOBOKEN 2 2 ';
	'NORTH ARLI~1';
	'KEARNY 1 1  ';
	'KEARNY 2 1  ';
	'KEARNY 2 2  ';
	'KENILWORTH~1';
	'KENILWORTH~2';
	'LAKE HIAWA~1';
	'LINCOLN PA~1';
	'LINDEN 1 1  ';
	'LINDEN 1 2  ';
	'LINDEN 2 1  ';
	'LINDEN 2 2  ';
	'LINDEN 2 3  ';
	'LINDEN 2 4  ';
	'LINDEN 2 6  ';
	'LIVINGSTON~1';
	'LIVINGSTON~2';
	'LIVINGSTON~3';
	'LIVINGSTON~4';
	'MAPLEWOOD 1 ';
	'MAPLEWOOD 2 ';
	'MAPLEWOOD 3 ';
	'MAPLEWOOD 4 ';
	'MAPLEWOOD 5 ';
	'MAPLEWOOD 7 ';
	'MONTCLAIR ~1';
	'MONTCLAIR ~2';
	'MONTCLAIR ~3';
	'MONTCLAIR ~4';
	'MONTCLAIR ~5';
	'VERONA 2 1  ';
	'VERONA 2 2  ';
	'MONTVILLE ~8';
	'MOUNTAIN L~1';
	'NORTH BERG~1';
	'NORTH BERG~2';
	'NORTH BERG~3';
	'NORTH BERG~4';
	'NORTH BERG~5';
	'NORTH BERG~6';
	'NORTH BERG~7';
	'NORTH BERG~8';
	'ORANGE 4 1  ';
	'WEST ORANG~1';
	'WEST ORANG~2';
	'WEST ORANG~3';
	'WEST ORANG~4';
	'PARSIPPANY~1';
	'PARSIPPANY~2';
	'PARSIPPANY~3';
	'PASSAIC 1 1 ';
	'PASSAIC 1 2 ';
	'PASSAIC 1 3 ';
	'PASSAIC 1 4 ';
	'PASSAIC 1 5 ';
	'PASSAIC 2 1 ';
	'PASSAIC 2 2 ';
	'PASSAIC 2 3 ';
	'PASSAIC 2 5 ';
	'WALLINGTON 1';
	'WALLINGTON 2';
	'WARREN 5 1  ';
	'PLAINFIELD~5';
	'PLAINFIELD~6';
	'PLAINFIELD~7';
	'PLAINFIELD~8';
	'PLAINFIELD~9';
	'PLAINFIEL~10';
	'PLAINFIEL~11';
	'PLAINFIEL~12';
	'PLAINFIEL~13';
	'RAHWAY 1 1  ';
	'RAHWAY 1 2  ';
	'RAHWAY 2 1  ';
	'RAHWAY 2 2  ';
	'CLARK 1     ';
	'COLONIA 1   ';
	'COLONIA 2   ';
	'LYNDHURST ~1';
	'LYNDHURST ~2';
	'EAST RUTHE~1';
	'WOOD RIDGE 1';
	'WOOD RIDGE 2';
	'SCOTCH PLA~1';
	'SCOTCH PLA~2';
	'SHORT HILL~1';
	'SHORT HILL~2';
	'SOUTH ORAN~1';
	'SOUTH PLAI~1';
	'SOUTH PLAI~2';
	'SOUTH PLAI~3';
	'SOUTH PLAI~4';
	'SOUTH PLAI~5';
	'SOUTH PLAI~6';
	'SPRINGFIE~10';
	'TOWACO 1    ';
	'UNION 2 1   ';
	'UNION 2 2   ';
	'UNION 3 1   ';
	'UNION 3 2   ';
	'UNION 3 3   ';
	'UNION 3 4   ';
	'WEEHAWKEN 1 ';
	'WEEHAWKEN 2 ';
	'UNION CITY~1';
	'UNION CITY~2';
	'UNION CITY~3';
	'UNION CITY~4';
	'UNION CITY~5';
	'UNION CITY~6';
	'WESTFIELD ~8';
	'WESTFIELD ~9';
	'WESTFIELD~10';
	'WESTFIELD~11';
	'WESTFIELD~12';
	'MOUNTAINSI~1';
	'WEST NEW Y~1';
	'WEST NEW Y~2';
	'WEST NEW Y~3';
	'WEST NEW Y~4';
	'WEST NEW Y~5';
	'SECAUCUS 1  ';
	'WOODBRIDGE~2';
	'NEWARK 2 1  ';
	'NEWARK 3 1  ';
	'NEWARK 3 2  ';
	'NEWARK 4 1  ';
	'NEWARK 4 2  ';
	'NEWARK 4 3  ';
	'NEWARK 4 4  ';
	'NEWARK 5 1  ';
	'NEWARK 5 2  ';
	'NEWARK 5 4  ';
	'NEWARK 6 1  ';
	'NEWARK 6 2  ';
	'NEWARK 6 3  ';
	'NEWARK 6 4  ';
	'NEWARK 7 1  ';
	'NEWARK 8 1  ';
	'NEWARK 9 1  ';
	'NEWARK 9 2  ';
	'NEWARK 9 4  ';
	'NEWARK 10 1 ';
	'NEWARK 11 1 ';
	'NEWARK 11 2 ';
	'NEWARK 11 3 ';
	'NEWARK 12 1 ';
	'NEWARK 12 2 ';
	'NEWARK 13 1 ';
	'BELLEVILLE~1';
	'BELLEVILLE~2';
	'BELLEVILLE~3';
	'NUTLEY 1 1  ';
	'NUTLEY 2 1  ';
	'IRVINGTON ~2';
	'IRVINGTON ~3';
	'IRVINGTON ~4';
	'IRVINGTON ~5';
	'NEWARK 14 1 ';
	'NEWARK 15 1 ';
	'NEWARK 16 1 ';
	'ELIZABETH ~1';
	'ELIZABETH ~2';
	'ELIZABETH ~3';
	'ELIZABETH ~4';
	'ELIZABETH ~5';
	'ELIZABETH ~6';
	'ELIZABETH ~7';
	'ROSELLE 1   ';
	'ROSELLE 2   ';
	'ROSELLE PA~1';
	'HILLSIDE 1  ';
	'HILLSIDE 2  ';
	'HILLSIDE 3  ';
	'ELIZABETHP~1';
	'ELIZABETHP~2';
	'ELIZABETH ~8';
	'ELIZABETH ~9';
	'ELIZABETH~10';
	'ELIZABETH~11';
	'JERSEY CIT~1';
	'JERSEY CI~11';
	'JERSEY CI~12';
	'JERSEY CI~13';
	'JERSEY CI~14';
	'JERSEY CI~15';
	'JERSEY CI~16';
	'JERSEY CI~17';
	'JERSEY CI~18';
	'JERSEY CI~19';
	'JERSEY CI~21';
	'JERSEY CI~22';
	'JERSEY CI~23';
	'JERSEY CI~24';
	'JERSEY CI~25';
	'JERSEY CI~26';
	'JERSEY CI~27';
	'JERSEY CI~28';
	'JERSEY CI~20';
	'JERSEY CI~29';
	'JERSEY CI~30';
	'JERSEY CI~31';
	'JERSEY CI~32';
	'JERSEY CI~33';
	'JERSEY CI~34';
	'JERSEY CI~35';
	'JERSEY CI~36';
	'JERSEY CI~37';
	'JERSEY CI~38';
	'JERSEY CI~39';
	'JERSEY CIT~2';
	'JERSEY CIT~3';
	'ALLENDALE ~1';
	'ALLENDALE ~2';
	'BLOOMINGDA~2';
	'BLOOMINGDA~3';
	'BUTLER 1 1  ';
	'BUTLER 1 2  ';
	'BUTLER 1 3  ';
	'BUTLER 1 5  ';
	'ELMWOOD PA~1';
	'FAIR LAWN ~1';
	'FAIR LAWN ~2';
	'FAIR LAWN ~3';
	'FAIR LAWN ~4';
	'FAIR LAWN ~5';
	'FAIR LAWN ~6';
	'FRANKLIN 8 1';
	'FRANKLIN 8 2';
	'FRANKLIN L~1';
	'HAMBURG 3 1 ';
	'HASKELL 1   ';
	'HASKELL 2   ';
	'HASKELL 3   ';
	'HASKELL 4   ';
	'HASKELL 5   ';
	'HEWITT 1    ';
	'HIGHLAND L~1';
	'LITTLE FA~14';
	'LITTLE FA~15';
	'LITTLE FA~16';
	'LITTLE FA~17';
	'MAHWAH 1 1  ';
	'MAHWAH 1 2  ';
	'MAHWAH 2 1  ';
	'MAHWAH 2 2  ';
	'MIDLAND PA~1';
	'MIDLAND PA~2';
	'OAKLAND 3 1 ';
	'OAKLAND 3 2 ';
	'OAK RIDGE ~1';
	'POMPTON LA~1';
	'POMPTON PL~1';
	'RAMSEY 1    ';
	'RAMSEY 2    ';
	'RIDGEWOOD ~7';
	'RIDGEWOOD ~8';
	'GLEN ROCK ~1';
	'GLEN ROCK ~2';
	'GLEN ROCK ~3';
	'GLEN ROCK ~4';
	'RINGWOOD 1  ';
	'RINGWOOD 2  ';
	'SADDLE RIV~1';
	'SADDLE RIV~2';
	'SADDLE RIV~3';
	'SADDLE RIV~4';
	'SADDLE RIV~5';
	'SUSSEX 1 1  ';
	'SUSSEX 1 2  ';
	'SUSSEX 1 3  ';
	'SUSSEX 1 4  ';
	'VERNON 2 1  ';
	'WALDWICK 1  ';
	'WALDWICK 2  ';
	'WANAQUE 1   ';
	'WAYNE 1 1   ';
	'WAYNE 1 2   ';
	'WAYNE 1 3   ';
	'WAYNE 1 4   ';
	'WAYNE 1 5   ';
	'WAYNE 2 1   ';
	'WAYNE 2 2   ';
	'WAYNE 2 3   ';
	'WEST MILFO~1';
	'WEST MILFO~2';
	'WEST MILFO~3';
	'WYCKOFF 1   ';
	'WYCKOFF 2   ';
	'WYCKOFF 3   ';
	'PATERSON 1 1';
	'PATERSON 2 1';
	'PATERSON 2 2';
	'PATERSON 2 3';
	'PATERSON 2 4';
	'PATERSON 3 1';
	'PATERSON 3 2';
	'PATERSON 4 1';
	'PATERSON 4 2';
	'PATERSON 5 1';
	'PATERSON 5 2';
	'PATERSON 5 4';
	'HAWTHORNE ~6';
	'HALEDON 1   ';
	'HALEDON 2   ';
	'TOTOWA 1    ';
	'PATERSON 6 1';
	'PATERSON 6 2';
	'PATERSON 7 1';
	'PATERSON 7 2';
	'PATERSON 7 4';
	'PATERSON 8 1';
	'PATERSON 8 2';
	'PATERSON 9 1';
	'PATERSON 9 2';
	'HACKENSACK~1';
	'HACKENSACK~2';
	'HACKENSACK~3';
	'BOGOTA 1    ';
	'BOGOTA 2    ';
	'BOGOTA 4    ';
	'HASBROUCK ~1';
	'HASBROUCK ~2';
	'LEONIA 1    ';
	'MAYWOOD 1   ';
	'BERGENFIEL~1';
	'BERGENFIEL~2';
	'BERGENFIEL~3';
	'BERGENFIEL~4';
	'CLOSTER 1   ';
	'CLOSTER 2   ';
	'CLOSTER 4   ';
	'CLOSTER 6   ';
	'CLOSTER 8   ';
	'CLOSTER 10  ';
	'CRESSKILL 1 ';
	'DEMAREST 1  ';
	'DUMONT 1    ';
	'DUMONT 2    ';
	'DUMONT 3    ';
	'EMERSON 1   ';
	'EMERSON 2   ';
	'ENGLEWOOD ~1';
	'ENGLEWOOD ~2';
	'ENGLEWOOD ~5';
	'ENGLEWOOD ~6';
	'HILLSDALE ~2';
	'HILLSDALE ~3';
	'LITTLE FER~1';
	'LITTLE FER~2';
	'LODI 1 1    ';
	'LODI 1 2    ';
	'LODI 1 3    ';
	'MONTVALE 1 1';
	'MONTVALE 1 2';
	'NEW MILFO~25';
	'NORTHVALE 1 ';
	'NORWOOD 6 1 ';
	'ORADELL 1   ';
	'PALISADES ~1';
	'PARAMUS 1 1 ';
	'PARAMUS 1 2 ';
	'PARAMUS 2 1 ';
	'PARAMUS 2 2 ';
	'PARAMUS 2 4 ';
	'PARK RIDGE 1';
	'RIDGEFIELD~9';
	'RIDGEFIEL~10';
	'RIDGEFIEL~11';
	'RIDGEFIEL~12';
	'RIDGEFIEL~31';
	'RIVER EDGE 1';
	'SADDLE BRO~1';
	'SADDLE BRO~2';
	'SADDLE BRO~3';
	'SADDLE BRO~4';
	'TEANECK 1 1 ';
	'TEANECK 1 2 ';
	'TEANECK 1 3 ';
	'TEANECK 1 4 ';
	'TEANECK 1 5 ';
	'TEANECK 1 7 ';
	'TEANECK 1 9 ';
	'TEANECK 1 11';
	'TEANECK 2 1 ';
	'TEANECK 2 2 ';
	'TENAFLY 1   ';
	'TENAFLY 2   ';
	'WESTWOOD 2 1';
	'WESTWOOD 3 1';
	'WESTWOOD 3 2';
	'TOWNSHIP O~1';
	'WOODCLIFF ~1';
	'RED BANK 1  ';
	'RED BANK 2  ';
	'FAIR HAVEN~2';
	'ASBURY PAR~1';
	'ASBURY PAR~2';
	'ASBURY PAR~3';
	'ASBURY PAR~4';
	'ASBURY PAR~5';
	'ASBURY PAR~6';
	'ASBURY PAR~7';
	'ATLANTIC H~1';
	'BELFORD 1   ';
	'BELFORD 2   ';
	'BELMAR 1    ';
	'BELMAR 2    ';
	'BELMAR 3    ';
	'COLTS NECK 1';
	'COLTS NECK 2';
	'EATONTOWN ~1';
	'EATONTOWN ~2';
	'EATONTOWN ~3';
	'EATONTOWN ~4';
	'ENGLISHTOW~1';
	'ENGLISHTOW~2';
	'FREEHOLD 1 1';
	'FREEHOLD 1 2';
	'FREEHOLD 2 1';
	'FREEHOLD 2 2';
	'FREEHOLD 2 3';
	'FREEHOLD 2 4';
	'FREEHOLD 2 5';
	'HAZLET 1    ';
	'HAZLET 2    ';
	'HOWELL 1 1  ';
	'HOWELL 1 2  ';
	'HOWELL 2 1  ';
	'HOWELL 2 2  ';
	'HIGHLANDS ~1';
	'HOLMDEL 1   ';
	'HOLMDEL 2   ';
	'HOLMDEL 3   ';
	'HOLMDEL 5   ';
	'KEANSBURG 1 ';
	'KEANSBURG 2 ';
	'KEYPORT 1   ';
	'LINCROFT 1  ';
	'LINCROFT 2  ';
	'LITTLE SIL~1';
	'LITTLE SIL~2';
	'LONG BRANC~1';
	'LONG BRANC~2';
	'MARLBORO 2 1';
	'MARLBORO 2 2';
	'MARLBORO 2 3';
	'MARLBORO 2 4';
	'MARLBORO 2 5';
	'MARLBORO 2 7';
	'MATAWAN 1 1 ';
	'MATAWAN 2 1 ';
	'MIDDLETOWN~7';
	'MIDDLETOWN~8';
	'MIDDLETOWN~9';
	'MORGANVILL~1';
	'MORGANVILL~2';
	'NEPTUNE 1 1 ';
	'NEPTUNE 1 2 ';
	'NEPTUNE 1 4 ';
	'NEPTUNE 2 1 ';
	'OAKHURST 1  ';
	'OCEANPORT 1 ';
	'OCEANPORT 2 ';
	'RUMSON 1    ';
	'SPRING LAK~1';
	'WEST LONG ~1';
	'WEST LONG ~2';
	'WEST LONG ~3';
	'DOVER 3 1   ';
	'DOVER 3 2   ';
	'DOVER 4 1   ';
	'DOVER 4 2   ';
	'DOVER 4 4   ';
	'DOVER 4 6   ';
	'MINE HILL 1 ';
	'MINE HILL 2 ';
	'ANDOVER 4 1 ';
	'ANDOVER 4 2 ';
	'BELVIDERE 1 ';
	'BLAIRSTOWN~1';
	'BLAIRSTOWN~2';
	'BRANCHVILL~1';
	'MONTAGUE 1  ';
	'MONTAGUE 2  ';
	'BUDD LAKE ~1';
	'CALIFON 1   ';
	'CALIFON 2   ';
	'COLUMBIA 2 1';
	'DENVILLE 1  ';
	'DENVILLE 2  ';
	'FLANDERS 1  ';
	'FLANDERS 2  ';
	'FLANDERS 3  ';
	'FLANDERS 4  ';
	'HACKETTSTO~1';
	'HACKETTSTO~2';
	'HACKETTSTO~3';
	'HACKETTSTO~4';
	'HACKETTSTO~5';
	'HACKETTSTO~6';
	'HACKETTSTO~7';
	'HACKETTSTO~8';
	'HOPATCONG 1 ';
	'HOPATCONG 2 ';
	'HOPATCONG 4 ';
	'LAFAYETTE ~1';
	'LAFAYETTE ~2';
	'LAKE HOPAT~1';
	'LAKE HOPAT~2';
	'LANDING 1   ';
	'LANDING 2   ';
	'LEDGEWOOD 1 ';
	'LEDGEWOOD 2 ';
	'LONG VALLE~1';
	'LONG VALLE~2';
	'MOUNT ARLI~1';
	'MOUNT ARLI~2';
	'NEWTON 3 1  ';
	'NEWTON 3 2  ';
	'NEWTON 4 1  ';
	'OXFORD 5 1  ';
	'OXFORD 5 2  ';
	'ROCKAWAY 1 1';
	'ROCKAWAY 1 2';
	'ROCKAWAY 1 3';
	'ROCKAWAY 1 4';
	'ROCKAWAY 1 5';
	'ROCKAWAY 1 6';
	'ROCKAWAY 1 8';
	'RANDOLPH 5 1';
	'RANDOLPH 6 1';
	'RANDOLPH 6 2';
	'RANDOLPH 6 3';
	'RANDOLPH 6 4';
	'RANDOLPH 6 5';
	'SPARTA 1 1  ';
	'SPARTA 1 2  ';
	'SPARTA 1 3  ';
	'SPARTA 1 5  ';
	'STANHOPE 1  ';
	'SUCCASUNNA 1';
	'WASHINGTON~1';
	'WHARTON 1 1 ';
	'SUMMIT 1 1  ';
	'BASKING RI~1';
	'BASKING RI~2';
	'BASKING RI~3';
	'BEDMINSTER 1';
	'BEDMINSTER 2';
	'BERKELEY H~1';
	'BERKELEY H~2';
	'BERNARDSVI~1';
	'BERNARDSVI~2';
	'CEDAR KNOL~1';
	'CHATHAM 2 1 ';
	'CHATHAM 2 2 ';
	'CHESTER 5 1 ';
	'FLORHAM PA~1';
	'EAST HANOV~1';
	'EAST HANOV~2';
	'MADISON 5 1 ';
	'MADISON 5 2 ';
	'MENDHAM 1   ';
	'MENDHAM 2   ';
	'MENDHAM 3   ';
	'MENDHAM 4   ';
	'MENDHAM 5   ';
	'MENDHAM 7   ';
	'MORRIS PLA~1';
	'MORRIS PLA~2';
	'MORRIS PLA~3';
	'MORRIS PLA~4';
	'MORRIS PLA~5';
	'MORRIS PLA~6';
	'MORRIS PLA~7';
	'MORRISTOWN~1';
	'MORRISTOWN~2';
	'MORRISTOWN~3';
	'MORRISTOWN~4';
	'NEW PROVID~1';
	'NEW PROVID~2';
	'NEW PROVID~3';
	'WHIPPANY 1  ';
	'CHERRY HIL~1';
	'CHERRY HIL~2';
	'CHERRY HIL~3';
	'CHERRY HIL~4';
	'CHERRY HIL~5';
	'CHERRY HIL~6';
	'CHERRY HIL~7';
	'CHERRY HIL~8';
	'ATCO 1      ';
	'ATCO 2      ';
	'BARNEGAT 1  ';
...